SandboxData_C2S7_20210305/C2S7N02020/scenario_007/case.raw
0,100.0,33,0,0,60.0
GRID OPTIMIZATION COMPETITION CHALLENGE 2
INPUT DATA FILES ARE RAW JSON CON
1,'ADAMS 1 1',69.0,1,1,1,1,1.00427437,-22.093179,1.1,0.9,1.1,0.9
2,'ADAMS 2 1',69.0,1,1,1,1,1.0143733,-23.800605,1.1,0.9,1.1,0.9
3,'ADAMS 3 1',69.0,1,1,1,1,0.98653269,-20.250317,1.1,0.9,1.1,0.9
4,'ALEXANDRIA~1',69.0,1,1,1,1,1.01210845,-27.055737,1.1,0.9,1.1,0.9
5,'ALEXANDRIA~2',69.0,1,1,1,1,1.0120858,-27.057572,1.1,0.9,1.1,0.9
6,'ALEXANDRIA~3',69.0,1,1,1,1,1.01609313,-26.246757,1.1,0.9,1.1,0.9
7,'ANTIOCH 1 1',138.0,1,1,1,1,1.00957906,-26.169156,1.1,0.9,1.1,0.9
8,'ANTIOCH 1 2',69.0,1,1,1,1,1.0112946,-27.98786,1.1,0.9,1.1,0.9
9,'ANTIOCH 1 3',138.0,1,1,1,1,1.00972974,-26.091075,1.1,0.9,1.1,0.9
10,'ANTIOCH 2 1',138.0,1,1,1,1,1.01102531,-24.713703,1.1,0.9,1.1,0.9
11,'ANTIOCH 2 2',69.0,1,1,1,1,1.00045204,-27.433713,1.1,0.9,1.1,0.9
12,'ANTIOCH 3 1',69.0,1,1,1,1,0.9998768,-27.080773,1.1,0.9,1.1,0.9
13,'ANTIOCH 4 1',138.0,1,1,1,1,1.01143992,-25.193945,1.1,0.9,1.1,0.9
14,'ANTIOCH 4 2',69.0,1,1,1,1,0.99944955,-27.759747,1.1,0.9,1.1,0.9
15,'ANTIOCH 5 1',69.0,1,1,1,1,1.00358462,-28.559604,1.1,0.9,1.1,0.9
16,'ASHLAND CI~1',69.0,1,1,1,1,0.99145597,-21.815669,1.1,0.9,1.1,0.9
17,'ASHLAND CI~2',69.0,1,1,1,1,0.98708797,-22.514689,1.1,0.9,1.1,0.9
18,'ASHLAND CI~3',69.0,1,1,1,1,0.99734968,-21.155128,1.1,0.9,1.1,0.9
19,'ASHLAND CI~4',138.0,1,1,1,1,1.03069365,-17.726793,1.1,0.9,1.1,0.9
20,'ASHLAND CI~5',69.0,1,1,1,1,1.00491297,-20.546775,1.1,0.9,1.1,0.9
21,'ASHLAND CI~6',138.0,1,1,1,1,1.03038013,-17.70223,1.1,0.9,1.1,0.9
22,'BEECHGROVE 1',69.0,1,1,1,1,1.02483964,-28.619051,1.1,0.9,1.1,0.9
23,'BELL BUCKL~1',69.0,1,1,1,1,0.99544311,-30.718124,1.1,0.9,1.1,0.9
24,'BELL BUCKL~2',69.0,1,1,1,1,0.99019206,-30.508078,1.1,0.9,1.1,0.9
25,'BELL BUCKL~3',69.0,1,1,1,1,1.00778365,-28.776895,1.1,0.9,1.1,0.9
26,'BELL BUCKL~4',69.0,1,1,1,1,1.00771129,-28.779043,1.1,0.9,1.1,0.9
27,'BETHPAGE 1 1',69.0,1,1,1,1,1.0058223,-27.830198,1.1,0.9,1.1,0.9
28,'BETHPAGE 1 2',69.0,1,1,1,1,1.00579643,-27.834614,1.1,0.9,1.1,0.9
29,'BETHPAGE 2 1',69.0,1,1,1,1,1.00648379,-27.150559,1.1,0.9,1.1,0.9
30,'BIG ROCK 1',69.0,1,1,1,1,0.98708314,-11.3388,1.1,0.9,1.1,0.9
31,'BON AQUA 1 1',69.0,1,1,1,1,0.99743611,-22.800358,1.1,0.9,1.1,0.9
32,'BON AQUA 2 1',69.0,1,1,1,1,1.01367438,-21.539203,1.1,0.9,1.1,0.9
33,'BON AQUA 3 1',69.0,1,1,1,1,1.0390842,-22.40447,1.1,0.9,1.1,0.9
34,'BRENTWOOD ~1',138.0,1,1,1,1,1.0096482,-21.305621,1.1,0.9,1.1,0.9
35,'BRENTWOOD ~2',69.0,1,1,1,1,1.00876749,-25.126295,1.1,0.9,1.1,0.9
36,'BRENTWOOD ~3',138.0,1,1,1,1,1.01014411,-21.207553,1.1,0.9,1.1,0.9
37,'BRENTWOOD ~4',138.0,1,1,1,1,1.00862241,-21.979059,1.1,0.9,1.1,0.9
38,'BRENTWOOD ~5',69.0,1,1,1,1,1.01123309,-26.37568,1.1,0.9,1.1,0.9
39,'BRENTWOOD ~6',69.0,1,1,1,1,1.01204014,-26.068703,1.1,0.9,1.1,0.9
40,'BRENTWOOD ~7',69.0,1,1,1,1,1.01217723,-26.085428,1.1,0.9,1.1,0.9
41,'BRENTWOOD ~8',69.0,1,1,1,1,1.00831878,-25.982335,1.1,0.9,1.1,0.9
42,'BRENTWOOD ~9',69.0,1,1,1,1,0.99915522,-27.013825,1.1,0.9,1.1,0.9
43,'BRENTWOOD~10',69.0,1,1,1,1,0.99905497,-27.034394,1.1,0.9,1.1,0.9
44,'BURNS 1 1',69.0,1,1,1,1,1.02589798,-22.932611,1.1,0.9,1.1,0.9
45,'BURNS 1 2',69.0,1,1,1,1,1.0259254,-22.929635,1.1,0.9,1.1,0.9
46,'BURNS 2 1',69.0,1,1,1,1,0.98971611,-23.645222,1.1,0.9,1.1,0.9
47,'CARTHAGE 1 1',69.0,1,1,1,1,1.01060379,-27.598542,1.1,0.9,1.1,0.9
48,'CARTHAGE 2 1',69.0,1,1,1,1,1.01153421,-27.764886,1.1,0.9,1.1,0.9
49,'CARTHAGE 2 2',69.0,1,1,1,1,1.01155293,-27.762246,1.1,0.9,1.1,0.9
50,'CARTHAGE 3 1',69.0,1,1,1,1,1.00679362,-27.856249,1.1,0.9,1.1,0.9
51,'CARTHAGE 3 2',69.0,1,1,1,1,1.0067327,-27.86369,1.1,0.9,1.1,0.9
52,'CEDAR HILL~1',69.0,1,1,1,1,0.9891392,-20.437917,1.1,0.9,1.1,0.9
53,'CEDAR HILL~2',69.0,1,1,1,1,0.98704559,-20.379019,1.1,0.9,1.1,0.9
54,'CEDAR HILL~3',69.0,1,1,1,1,0.98702866,-20.380733,1.1,0.9,1.1,0.9
55,'CENTERVILL~1',138.0,1,1,1,1,1.01592457,-17.237142,1.1,0.9,1.1,0.9
56,'CENTERVILL~2',69.0,1,1,1,1,1.00082922,-17.8773,1.1,0.9,1.1,0.9
57,'CENTERVILL~3',138.0,1,1,1,1,1.01586962,-17.241568,1.1,0.9,1.1,0.9
58,'CENTERVILL~4',69.0,1,1,1,1,1.00172329,-16.7448,1.1,0.9,1.1,0.9
59,'CENTERVILL~5',69.0,1,1,1,1,0.99721086,-18.688622,1.1,0.9,1.1,0.9
60,'CHAPEL HIL~1',69.0,1,1,1,1,1.00700283,-28.908608,1.1,0.9,1.1,0.9
61,'CHAPEL HIL~2',69.0,1,1,1,1,0.99336272,-28.211471,1.1,0.9,1.1,0.9
62,'CHAPEL HIL~3',69.0,1,1,1,1,1.01602972,-28.828282,1.1,0.9,1.1,0.9
63,'CHAPMANSBO~1',69.0,1,1,1,1,0.98978084,-20.642782,1.1,0.9,1.1,0.9
64,'CHAPMANSBO~2',69.0,1,1,1,1,1.00779176,-20.104313,1.1,0.9,1.1,0.9
65,'CHARLOTTE ~1',69.0,1,1,1,1,0.99315667,-18.328201,1.1,0.9,1.1,0.9
66,'CHARLOTTE ~2',69.0,1,1,1,1,0.99706393,-18.367996,1.1,0.9,1.1,0.9
67,'CHARLOTTE ~3',69.0,1,1,1,1,0.99268264,-19.148741,1.1,0.9,1.1,0.9
68,'CHRISTIANA~1',69.0,1,1,1,1,1.01110005,-30.177743,1.1,0.9,1.1,0.9
69,'CHRISTIANA~2',69.0,1,1,1,1,1.03042316,-29.594049,1.1,0.9,1.1,0.9
70,'CLARKSVILL~1',138.0,1,1,1,1,1.00361836,-15.176443,1.1,0.9,1.1,0.9
71,'CLARKSVILL~2',69.0,1,1,1,1,1.00352859,-16.2797,1.1,0.9,1.1,0.9
72,'CLARKSVILL~3',138.0,1,1,1,1,1.00342238,-15.209839,1.1,0.9,1.1,0.9
73,'CLARKSVIL~12',138.0,1,1,1,1,1.00528932,-16.595087,1.1,0.9,1.1,0.9
74,'CLARKSVIL~13',69.0,1,1,1,1,0.99641603,-19.226689,1.1,0.9,1.1,0.9
75,'CLARKSVIL~14',138.0,1,1,1,1,1.00547695,-16.572561,1.1,0.9,1.1,0.9
76,'CLARKSVIL~15',345.0,1,1,1,1,1.02398837,-13.201346,1.1,0.9,1.1,0.9
77,'CLARKSVIL~16',138.0,1,1,1,1,1.01508069,-15.291124,1.1,0.9,1.1,0.9
78,'CLARKSVIL~17',69.0,1,1,1,1,1.00126886,-17.366475,1.1,0.9,1.1,0.9
79,'CLARKSVIL~18',69.0,1,1,1,1,0.99628824,-17.136357,1.1,0.9,1.1,0.9
80,'CLARKSVIL~19',69.0,1,1,1,1,0.98968053,-16.905329,1.1,0.9,1.1,0.9
81,'CLARKSVIL~20',69.0,1,1,1,1,0.99343264,-17.682094,1.1,0.9,1.1,0.9
82,'CLARKSVIL~21',138.0,1,1,1,1,1.00947821,-15.967481,1.1,0.9,1.1,0.9
83,'CLARKSVIL~22',69.0,1,1,1,1,0.99371159,-17.718166,1.1,0.9,1.1,0.9
84,'CLARKSVIL~23',138.0,1,1,1,1,1.00962722,-15.958071,1.1,0.9,1.1,0.9
85,'CLARKSVIL~24',138.0,1,1,1,1,1.01136649,-14.893084,1.1,0.9,1.1,0.9
86,'CLARKSVIL~25',69.0,1,1,1,1,1.00029325,-16.552771,1.1,0.9,1.1,0.9
87,'CLARKSVIL~26',138.0,1,1,1,1,1.01114488,-14.913447,1.1,0.9,1.1,0.9
88,'CLARKSVIL~27',138.0,1,1,1,1,1.00515103,-13.013892,1.1,0.9,1.1,0.9
89,'CLARKSVIL~28',69.0,1,1,1,1,0.98239464,-16.161891,1.1,0.9,1.1,0.9
90,'CLARKSVILL~4',138.0,1,1,1,1,1.01975965,-16.776618,1.1,0.9,1.1,0.9
91,'CLARKSVILL~5',69.0,1,1,1,1,1.01405501,-19.292213,1.1,0.9,1.1,0.9
92,'CLARKSVILL~6',138.0,1,1,1,1,1.01991665,-16.751392,1.1,0.9,1.1,0.9
93,'CLARKSVILL~7',69.0,1,1,1,1,0.99843943,-17.481748,1.1,0.9,1.1,0.9
94,'CLARKSVILL~8',69.0,1,1,1,1,0.99849558,-17.475292,1.1,0.9,1.1,0.9
95,'CLARKSVILL~9',69.0,1,1,1,1,0.99620897,-19.60246,1.1,0.9,1.1,0.9
96,'CLARKSVIL~10',138.0,1,1,1,1,1.01259947,-15.585517,1.1,0.9,1.1,0.9
97,'CLARKSVIL~11',69.0,1,1,1,1,1.00151265,-17.003095,1.1,0.9,1.1,0.9
98,'COLLEGE GR~1',69.0,1,1,1,1,1.0292176,-28.031482,1.1,0.9,1.1,0.9
99,'COLLEGE GR~2',69.0,1,1,1,1,1.02343309,-28.107408,1.1,0.9,1.1,0.9
100,'COLLEGE GR~3',69.0,1,1,1,1,0.9999792,-28.81553,1.1,0.9,1.1,0.9
101,'CORNERSVIL~1',69.0,1,1,1,1,0.993527,-25.869003,1.1,0.9,1.1,0.9
102,'CORNERSVIL~2',69.0,1,1,1,1,0.99349678,-25.872434,1.1,0.9,1.1,0.9
103,'COTTONTOWN~1',69.0,1,1,1,1,1.02473199,-26.718957,1.1,0.9,1.1,0.9
104,'COTTONTOWN~2',69.0,1,1,1,1,1.02879345,-28.479184,1.1,0.9,1.1,0.9
105,'CROSS PLAI~1',69.0,1,1,1,1,1.02123213,-27.923198,1.1,0.9,1.1,0.9
106,'CUMBERLAND~7',69.0,1,1,1,1,1.01099575,-12.427579,1.1,0.9,1.1,0.9
107,'CUMBERLAND~8',69.0,1,1,1,1,0.99990481,-17.675123,1.1,0.9,1.1,0.9
108,'CUMBERLAND~9',69.0,1,1,1,1,0.99666864,-16.992143,1.1,0.9,1.1,0.9
109,'CUNNINGHAM 1',69.0,1,1,1,1,0.99160373,-17.977142,1.1,0.9,1.1,0.9
110,'DICKSON 1 1',69.0,1,1,1,1,1.02233529,-20.882347,1.1,0.9,1.1,0.9
111,'DICKSON 1 2',69.0,1,1,1,1,1.02227414,-20.892169,1.1,0.9,1.1,0.9
112,'DICKSON 2 1',138.0,1,1,1,1,1.01240754,-17.072889,1.1,0.9,1.1,0.9
113,'DICKSON 2 2',69.0,1,1,1,1,0.99167168,-19.28243,1.1,0.9,1.1,0.9
114,'DICKSON 2 3',138.0,1,1,1,1,1.01257217,-17.062974,1.1,0.9,1.1,0.9
115,'DICKSON 3 1',138.0,1,1,1,1,1.01392066,-13.118089,1.1,0.9,1.1,0.9
116,'DICKSON 3 2',69.0,1,1,1,1,1.00508237,-15.652871,1.1,0.9,1.1,0.9
117,'DICKSON 4 1',69.0,1,1,1,1,0.9923386,-19.065406,1.1,0.9,1.1,0.9
118,'DOVER 1 1',138.0,1,1,1,1,1.02180326,-10.03387,1.1,0.9,1.1,0.9
119,'DOVER 1 2',69.0,1,1,1,1,1.01023746,-8.228392,1.1,0.9,1.1,0.9
120,'DOVER 1 3',138.0,1,1,1,1,1.02185953,-10.05769,1.1,0.9,1.1,0.9
121,'DOVER 2 1',69.0,1,1,1,1,1.00272536,-8.723483,1.1,0.9,1.1,0.9
122,'DOVER 3 1',69.0,1,1,1,1,1.01342118,-7.358591,1.1,0.9,1.1,0.9
123,'DOVER 3 2',69.0,1,1,1,1,1.01340044,-7.362186,1.1,0.9,1.1,0.9
124,'DOWELLTOWN 1',69.0,1,1,1,1,1.01936388,-25.652702,1.1,0.9,1.1,0.9
125,'ERIN 1 1',69.0,1,1,1,1,1.00526845,-14.817974,1.1,0.9,1.1,0.9
126,'ERIN 2 1',69.0,1,1,1,1,0.99399066,-17.442495,1.1,0.9,1.1,0.9
127,'ERIN 3 1',69.0,1,1,1,1,1.01358581,-9.910002,1.1,0.9,1.1,0.9
128,'FAIRVIEW 1 1',69.0,1,1,1,1,0.98331565,-24.921912,1.1,0.9,1.1,0.9
129,'FAIRVIEW 2 1',69.0,1,1,1,1,0.99703622,-24.860089,1.1,0.9,1.1,0.9
130,'FAIRVIEW 3 1',138.0,1,1,1,1,1.02250946,-18.937172,1.1,0.9,1.1,0.9
131,'FAIRVIEW 3 2',69.0,1,1,1,1,1.00786304,-23.357485,1.1,0.9,1.1,0.9
132,'FRANKLIN 1 1',69.0,1,1,1,1,0.97619385,-27.616468,1.1,0.9,1.1,0.9
133,'FRANKLIN 2 1',69.0,1,1,1,1,0.9818033,-27.035465,1.1,0.9,1.1,0.9
134,'FRANKLIN 3 1',138.0,1,1,1,1,0.99461621,-23.079817,1.1,0.9,1.1,0.9
135,'FRANKLIN 3 2',69.0,1,1,1,1,0.97076738,-28.09111,1.1,0.9,1.1,0.9
136,'FRANKLIN 4 1',138.0,1,1,1,1,1.00939488,-21.779942,1.1,0.9,1.1,0.9
137,'FRANKLIN 4 2',69.0,1,1,1,1,0.98119116,-27.145144,1.1,0.9,1.1,0.9
138,'FRANKLIN 5 1',69.0,1,1,1,1,0.98787647,-26.549864,1.1,0.9,1.1,0.9
139,'GALLATIN 1 1',138.0,1,1,1,1,1.0249052,-22.758834,1.1,0.9,1.1,0.9
140,'GALLATIN 1 2',69.0,1,1,1,1,1.01759994,-24.211277,1.1,0.9,1.1,0.9
141,'GALLATIN 2 1',69.0,1,1,1,1,1.0228579,-23.784076,1.1,0.9,1.1,0.9
142,'GALLATIN 2 2',69.0,1,1,1,1,1.0227592,-23.795688,1.1,0.9,1.1,0.9
143,'GALLATIN 3 1',138.0,1,1,1,1,1.0293175,-23.344743,1.1,0.9,1.1,0.9
144,'GALLATIN 3 2',69.0,1,1,1,1,1.01067317,-26.020072,1.1,0.9,1.1,0.9
145,'FRANKLIN 6 1',69.0,1,1,1,1,1.01283896,-26.669889,1.1,0.9,1.1,0.9
146,'FRANKLIN 7 1',69.0,1,1,1,1,1.01532185,-26.300299,1.1,0.9,1.1,0.9
147,'FRANKLIN 8 1',69.0,1,1,1,1,1.00508976,-26.235766,1.1,0.9,1.1,0.9
148,'FRANKLIN 9 1',69.0,1,1,1,1,1.02125251,-27.053129,1.1,0.9,1.1,0.9
149,'FRANKLIN 1~1',69.0,1,1,1,1,1.00781393,-25.632414,1.1,0.9,1.1,0.9
150,'FRANKLIN 1~2',69.0,1,1,1,1,1.00776207,-25.638609,1.1,0.9,1.1,0.9
151,'FRANKLIN 1~3',69.0,1,1,1,1,1.00677717,-25.298995,1.1,0.9,1.1,0.9
152,'FRANKLIN 1~4',69.0,1,1,1,1,1.00312996,-25.652877,1.1,0.9,1.1,0.9
153,'FRANKLIN 1~5',69.0,1,1,1,1,0.96509534,-28.912331,1.1,0.9,1.1,0.9
154,'GOODLETTSV~1',69.0,1,1,1,1,1.03011858,-28.252429,1.1,0.9,1.1,0.9
155,'GOODLETTSV~2',69.0,1,1,1,1,1.00377893,-25.660635,1.1,0.9,1.1,0.9
156,'GOODLETTSV~3',138.0,1,1,1,1,1.01800406,-23.68663,1.1,0.9,1.1,0.9
157,'GOODLETTSV~4',69.0,1,1,1,1,1.00866425,-25.702697,1.1,0.9,1.1,0.9
158,'GREENBRIER~1',69.0,1,1,1,1,0.99162918,-23.04618,1.1,0.9,1.1,0.9
159,'GREENBRIER~2',69.0,1,1,1,1,1.00367665,-25.807907,1.1,0.9,1.1,0.9
160,'GREENBRIER~3',69.0,1,1,1,1,1.00007761,-26.670133,1.1,0.9,1.1,0.9
161,'HARTSVILLE~1',69.0,1,1,1,1,1.01790488,-26.756539,1.1,0.9,1.1,0.9
162,'HARTSVILLE~2',138.0,1,1,1,1,1.02918661,-22.573562,1.1,0.9,1.1,0.9
163,'HARTSVILLE~3',69.0,1,1,1,1,1.0257051,-25.417943,1.1,0.9,1.1,0.9
164,'HENDERSONV~1',69.0,1,1,1,1,1.00909984,-25.15407,1.1,0.9,1.1,0.9
165,'HENDERSONV~2',138.0,1,1,1,1,1.02025294,-23.496739,1.1,0.9,1.1,0.9
166,'HENDERSONV~3',69.0,1,1,1,1,1.0034622,-25.221747,1.1,0.9,1.1,0.9
167,'HENDERSONV~4',69.0,1,1,1,1,1.01482558,-25.558558,1.1,0.9,1.1,0.9
168,'HENDERSONV~5',138.0,1,1,1,1,1.02073622,-23.153762,1.1,0.9,1.1,0.9
169,'HENDERSONV~6',69.0,1,1,1,1,1.01253617,-24.852991,1.1,0.9,1.1,0.9
170,'HENDERSONV~7',138.0,1,1,1,1,1.02051735,-23.179347,1.1,0.9,1.1,0.9
171,'HENDERSONV~8',69.0,1,1,1,1,1.00291157,-25.276715,1.1,0.9,1.1,0.9
172,'HERMITAGE ~1',69.0,1,1,1,1,0.99714261,-27.397519,1.1,0.9,1.1,0.9
173,'HERMITAGE ~2',138.0,1,1,1,1,1.01454628,-24.168838,1.1,0.9,1.1,0.9
174,'HERMITAGE ~3',69.0,1,1,1,1,1.00310183,-27.733546,1.1,0.9,1.1,0.9
175,'HERMITAGE ~4',69.0,1,1,1,1,1.00264084,-25.97579,1.1,0.9,1.1,0.9
176,'HERMITAGE ~5',69.0,1,1,1,1,1.00987041,-25.750976,1.1,0.9,1.1,0.9
177,'JOELTON 1 1',69.0,1,1,1,1,0.97969872,-27.145863,1.1,0.9,1.1,0.9
178,'JOELTON 1 2',69.0,1,1,1,1,0.97973615,-27.143645,1.1,0.9,1.1,0.9
179,'JOELTON 2 1',69.0,1,1,1,1,0.98990262,-22.330095,1.1,0.9,1.1,0.9
180,'KINGSTON S~1',69.0,1,1,1,1,0.98767275,-23.502648,1.1,0.9,1.1,0.9
181,'KINGSTON S~2',69.0,1,1,1,1,1.00536072,-23.571418,1.1,0.9,1.1,0.9
182,'KINGSTON S~3',69.0,1,1,1,1,1.00533736,-23.575827,1.1,0.9,1.1,0.9
183,'KINGSTON S~4',69.0,1,1,1,1,0.9909941,-24.106331,1.1,0.9,1.1,0.9
184,'LAFAYETTE ~1',138.0,1,1,1,1,1.0290482,-31.834777,1.1,0.9,1.1,0.9
185,'LAFAYETTE ~2',69.0,1,1,1,1,1.01890802,-32.419787,1.1,0.9,1.1,0.9
186,'LAFAYETTE ~3',138.0,1,1,1,1,1.02914,-31.831571,1.1,0.9,1.1,0.9
187,'LAFAYETTE ~4',69.0,1,1,1,1,1.01532948,-26.012653,1.1,0.9,1.1,0.9
188,'LAFAYETTE ~5',138.0,1,1,1,1,1.03284025,-31.659945,1.1,0.9,1.1,0.9
189,'LAFAYETTE ~6',69.0,1,1,1,1,1.022668,-31.296798,1.1,0.9,1.1,0.9
190,'LAFAYETTE ~7',138.0,1,1,1,1,1.03280377,-31.665266,1.1,0.9,1.1,0.9
191,'LASCASSAS ~1',69.0,1,1,1,1,1.01199067,-26.934168,1.1,0.9,1.1,0.9
192,'LASCASSAS ~2',69.0,1,1,1,1,1.02784562,-27.549452,1.1,0.9,1.1,0.9
193,'LA VERGNE ~1',69.0,1,1,1,1,1.01162052,-25.962966,1.1,0.9,1.1,0.9
194,'LA VERGNE ~2',69.0,1,1,1,1,1.00834084,-27.982505,1.1,0.9,1.1,0.9
195,'LA VERGNE ~3',69.0,1,1,1,1,1.005077,-28.012894,1.1,0.9,1.1,0.9
196,'LA VERGNE ~4',69.0,1,1,1,1,1.02799821,-28.416918,1.1,0.9,1.1,0.9
197,'LEBANON 1 1',138.0,1,1,1,1,1.02399588,-24.058107,1.1,0.9,1.1,0.9
198,'LEBANON 1 2',69.0,1,1,1,1,1.02134001,-25.553626,1.1,0.9,1.1,0.9
199,'LEBANON 1 3',138.0,1,1,1,1,1.02390742,-24.072788,1.1,0.9,1.1,0.9
200,'LEBANON 2 1',138.0,1,1,1,1,1.02371633,-24.044522,1.1,0.9,1.1,0.9
...
0 / END OF BUS DATA BEGIN LOAD DATA
1,'1',1,1,1,4.06,0.38,0.0,0.0,0.0,0.0,1,1,0
2,'1',1,1,1,2.817,0.937,0.0,0.0,0.0,0.0,1,1,0
3,'1',1,1,1,7.95,2.22,0.0,0.0,0.0,0.0,1,1,0
5,'1',1,1,1,3.401,1.193,0.0,0.0,0.0,0.0,1,1,0
6,'1',1,1,1,3.59,0.37,0.0,0.0,0.0,0.0,1,1,0
8,'1',1,1,1,33.98,5.06,0.0,0.0,0.0,0.0,1,1,0
11,'1',1,1,1,31.732,9.992,0.0,0.0,0.0,0.0,1,1,0
12,'1',1,1,1,50.97,8.715,0.0,0.0,0.0,0.0,1,1,0
14,'1',1,1,1,50.97,11.745,0.0,0.0,0.0,0.0,1,1,0
15,'1',1,1,1,33.98,8.27,0.0,0.0,0.0,0.0,1,1,0
16,'1',1,1,1,11.17,1.27,0.0,0.0,0.0,0.0,1,1,0
17,'1',1,1,1,9.87,4.445,0.0,0.0,0.0,0.0,1,1,0
18,'1',1,1,1,12.393,8.011,0.0,0.0,0.0,0.0,1,1,0
20,'1',1,1,1,9.913,2.849,0.0,0.0,0.0,0.0,1,1,0
22,'1',1,1,1,4.777,1.683,0.0,0.0,0.0,0.0,1,1,0
23,'1',1,1,1,4.36,0.89,0.0,0.0,0.0,0.0,1,1,0
24,'1',1,1,1,4.747,1.59,0.0,0.0,0.0,0.0,1,1,0
26,'1',1,1,1,3.67,0.724,0.0,0.0,0.0,0.0,1,1,0
28,'1',1,1,1,7.11,0.615,0.0,0.0,0.0,0.0,1,1,0
29,'1',1,1,1,8.91,2.115,0.0,0.0,0.0,0.0,1,1,0
30,'1',1,1,1,9.71,4.878,0.0,0.0,0.0,0.0,1,1,0
31,'1',1,1,1,4.796,0.755,0.0,0.0,0.0,0.0,1,1,0
32,'1',1,1,1,13.995,5.133,0.0,0.0,0.0,0.0,1,1,0
33,'1',1,1,1,7.293,0.729,0.0,0.0,0.0,0.0,1,1,0
35,'1',1,1,1,38.25,4.35,0.0,0.0,0.0,0.0,1,1,0
38,'1',1,1,1,20.576,10.514,0.0,0.0,0.0,0.0,1,1,0
40,'1',1,1,1,23.832,0.758,0.0,0.0,0.0,0.0,1,1,0
41,'1',1,1,1,25.5,7.05,0.0,0.0,0.0,0.0,1,1,0
43,'1',1,1,1,31.37,2.411,0.0,0.0,0.0,0.0,1,1,0
44,'1',1,1,1,4.88,1.22,0.0,0.0,0.0,0.0,1,1,0
46,'1',1,1,1,7.176,4.036,0.0,0.0,0.0,0.0,1,1,0
47,'1',1,1,1,7.92,2.67,0.0,0.0,0.0,0.0,1,1,0
48,'1',1,1,1,4.374,0.756,0.0,0.0,0.0,0.0,1,1,0
51,'1',1,1,1,11.63,2.506,0.0,0.0,0.0,0.0,1,1,0
52,'1',1,1,1,5.84,0.435,0.0,0.0,0.0,0.0,1,1,0
54,'1',1,1,1,2.799,0.82,0.0,0.0,0.0,0.0,1,1,0
57,'1',1,1,1,8.034,2.88,0.0,0.0,0.0,0.0,1,1,0
58,'1',1,1,1,7.289,2.717,0.0,0.0,0.0,0.0,1,1,0
59,'1',1,1,1,10.14,2.58,0.0,0.0,0.0,0.0,1,1,0
60,'1',1,1,1,3.667,0.758,0.0,0.0,0.0,0.0,1,1,0
61,'1',1,1,1,6.9,3.268,0.0,0.0,0.0,0.0,1,1,0
62,'1',1,1,1,4.8,1.0,0.0,0.0,0.0,0.0,1,1,0
63,'1',1,1,1,6.53,0.87,0.0,0.0,0.0,0.0,1,1,0
64,'1',1,1,1,3.26,0.44,0.0,0.0,0.0,0.0,1,1,0
65,'1',1,1,1,4.572,1.089,0.0,0.0,0.0,0.0,1,1,0
66,'1',1,1,1,4.265,0.907,0.0,0.0,0.0,0.0,1,1,0
67,'1',1,1,1,3.337,0.342,0.0,0.0,0.0,0.0,1,1,0
68,'1',1,1,1,6.503,2.402,0.0,0.0,0.0,0.0,1,1,0
69,'1',1,1,1,5.47,2.21,0.0,0.0,0.0,0.0,1,1,0
72,'1',1,1,1,51.02,6.271,0.0,0.0,0.0,0.0,1,1,0
74,'1',1,1,1,26.28,10.287,0.0,0.0,0.0,0.0,1,1,0
78,'1',1,1,1,25.53,8.489,0.0,0.0,0.0,0.0,1,1,0
79,'1',1,1,1,22.57,9.716,0.0,0.0,0.0,0.0,1,1,0
80,'1',1,1,1,28.087,8.022,0.0,0.0,0.0,0.0,1,1,0
81,'1',1,1,1,28.552,6.687,0.0,0.0,0.0,0.0,1,1,0
83,'1',1,1,1,23.361,4.518,0.0,0.0,0.0,0.0,1,1,0
87,'1',1,1,1,34.8,12.43,0.0,0.0,0.0,0.0,1,1,0
89,'1',1,1,1,52.2,8.415,0.0,0.0,0.0,0.0,1,1,0
91,'1',1,1,1,20.07,2.574,0.0,0.0,0.0,0.0,1,1,0
93,'1',1,1,1,23.611,11.232,0.0,0.0,0.0,0.0,1,1,0
95,'1',1,1,1,25.96,1.22,0.0,0.0,0.0,0.0,1,1,0
97,'1',1,1,1,21.902,8.234,0.0,0.0,0.0,0.0,1,1,0
98,'1',1,1,1,4.77,0.75,0.0,0.0,0.0,0.0,1,1,0
99,'1',1,1,1,3.079,0.586,0.0,0.0,0.0,0.0,1,1,0
100,'1',1,1,1,3.906,1.437,0.0,0.0,0.0,0.0,1,1,0
102,'1',1,1,1,6.09,1.44,0.0,0.0,0.0,0.0,1,1,0
103,'1',1,1,1,6.29,2.53,0.0,0.0,0.0,0.0,1,1,0
104,'1',1,1,1,9.402,2.033,0.0,0.0,0.0,0.0,1,1,0
105,'1',1,1,1,4.048,2.028,0.0,0.0,0.0,0.0,1,1,0
106,'1',1,1,1,6.25,1.31,0.0,0.0,0.0,0.0,1,1,0
107,'1',1,1,1,5.97,0.72,0.0,0.0,0.0,0.0,1,1,0
108,'1',1,1,1,9.09,0.62,0.0,0.0,0.0,0.0,1,1,0
109,'1',1,1,1,5.501,2.337,0.0,0.0,0.0,0.0,1,1,0
111,'1',1,1,1,17.57,1.28,0.0,0.0,0.0,0.0,1,1,0
113,'1',1,1,1,26.36,8.417,0.0,0.0,0.0,0.0,1,1,0
116,'1',1,1,1,14.681,4.872,0.0,0.0,0.0,0.0,1,1,0
117,'1',1,1,1,17.57,4.87,0.0,0.0,0.0,0.0,1,1,0
119,'1',1,1,1,15.844,5.729,0.0,0.0,0.0,0.0,1,1,0
121,'1',1,1,1,4.325,1.071,0.0,0.0,0.0,0.0,1,1,0
123,'1',1,1,1,5.646,0.736,0.0,0.0,0.0,0.0,1,1,0
124,'1',1,1,1,8.092,2.989,0.0,0.0,0.0,0.0,1,1,0
125,'1',1,1,1,5.939,1.134,0.0,0.0,0.0,0.0,1,1,0
126,'1',1,1,1,3.34,1.054,0.0,0.0,0.0,0.0,1,1,0
127,'1',1,1,1,7.674,1.277,0.0,0.0,0.0,0.0,1,1,0
128,'1',1,1,1,13.97,8.223,0.0,0.0,0.0,0.0,1,1,0
129,'1',1,1,1,12.384,1.184,0.0,0.0,0.0,0.0,1,1,0
131,'1',1,1,1,12.986,4.968,0.0,0.0,0.0,0.0,1,1,0
132,'1',1,1,1,24.616,3.256,0.0,0.0,0.0,0.0,1,1,0
133,'1',1,1,1,22.518,8.703,0.0,0.0,0.0,0.0,1,1,0
135,'1',1,1,1,31.162,7.423,0.0,0.0,0.0,0.0,1,1,0
137,'1',1,1,1,15.012,2.424,0.0,0.0,0.0,0.0,1,1,0
138,'1',1,1,1,25.02,4.75,0.0,0.0,0.0,0.0,1,1,0
140,'1',1,1,1,46.175,3.098,0.0,0.0,0.0,0.0,1,1,0
142,'1',1,1,1,21.48,4.947,0.0,0.0,0.0,0.0,1,1,0
144,'1',1,1,1,27.79,9.34,0.0,0.0,0.0,0.0,1,1,0
145,'1',1,1,1,9.222,2.526,0.0,0.0,0.0,0.0,1,1,0
146,'1',1,1,1,15.995,2.945,0.0,0.0,0.0,0.0,1,1,0
147,'1',1,1,1,13.836,2.35,0.0,0.0,0.0,0.0,1,1,0
148,'1',1,1,1,15.37,4.58,0.0,0.0,0.0,0.0,1,1,0
150,'1',1,1,1,11.202,1.916,0.0,0.0,0.0,0.0,1,1,0
151,'1',1,1,1,11.22,8.552,0.0,0.0,0.0,0.0,1,1,0
152,'1',1,1,1,7.373,0.156,0.0,0.0,0.0,0.0,1,1,0
153,'1',1,1,1,16.765,2.703,0.0,0.0,0.0,0.0,1,1,0
154,'1',1,1,1,22.52,7.09,0.0,0.0,0.0,0.0,1,1,0
155,'1',1,1,1,14.192,3.598,0.0,0.0,0.0,0.0,1,1,0
157,'1',1,1,1,14.153,3.682,0.0,0.0,0.0,0.0,1,1,0
158,'1',1,1,1,17.231,6.386,0.0,0.0,0.0,0.0,1,1,0
159,'1',1,1,1,17.35,2.939,0.0,0.0,0.0,0.0,1,1,0
160,'1',1,1,1,10.869,1.55,0.0,0.0,0.0,0.0,1,1,0
161,'1',1,1,1,8.443,3.008,0.0,0.0,0.0,0.0,1,1,0
163,'1',1,1,1,10.891,3.726,0.0,0.0,0.0,0.0,1,1,0
164,'1',1,1,1,27.732,11.359,0.0,0.0,0.0,0.0,1,1,0
166,'1',1,1,1,25.125,14.997,0.0,0.0,0.0,0.0,1,1,0
167,'1',1,1,1,27.699,2.445,0.0,0.0,0.0,0.0,1,1,0
170,'1',1,1,1,46.22,8.851,0.0,0.0,0.0,0.0,1,1,0
171,'1',1,1,1,41.851,18.528,0.0,0.0,0.0,0.0,1,1,0
172,'1',1,1,1,22.9,3.81,0.0,0.0,0.0,0.0,1,1,0
174,'1',1,1,1,22.9,1.11,0.0,0.0,0.0,0.0,1,1,0
175,'1',1,1,1,20.45,14.94,0.0,0.0,0.0,0.0,1,1,0
176,'1',1,1,1,20.92,5.71,0.0,0.0,0.0,0.0,1,1,0
177,'1',1,1,1,3.84,2.208,0.0,0.0,0.0,0.0,1,1,0
179,'1',1,1,1,6.967,1.404,0.0,0.0,0.0,0.0,1,1,0
180,'1',1,1,1,4.288,1.305,0.0,0.0,0.0,0.0,1,1,0
182,'1',1,1,1,7.778,0.779,0.0,0.0,0.0,0.0,1,1,0
183,'1',1,1,1,8.317,2.118,0.0,0.0,0.0,0.0,1,1,0
185,'1',1,1,1,20.01,1.83,0.0,0.0,0.0,0.0,1,1,0
187,'1',1,1,1,11.43,1.707,0.0,0.0,0.0,0.0,1,1,0
190,'1',1,1,1,9.749,1.456,0.0,0.0,0.0,0.0,1,1,0
191,'1',1,1,1,6.859,1.674,0.0,0.0,0.0,0.0,1,1,0
192,'1',1,1,1,2.1,0.396,0.0,0.0,0.0,0.0,1,1,0
193,'1',1,1,1,18.782,2.614,0.0,0.0,0.0,0.0,1,1,0
194,'1',1,1,1,14.943,11.623,0.0,0.0,0.0,0.0,1,1,0
195,'1',1,1,1,20.48,7.32,0.0,0.0,0.0,0.0,1,1,0
196,'1',1,1,1,30.72,2.55,0.0,0.0,0.0,0.0,1,1,0
199,'1',1,1,1,26.74,3.08,0.0,0.0,0.0,0.0,1,1,0
202,'1',1,1,1,29.95,12.51,0.0,0.0,0.0,0.0,1,1,0
203,'1',1,1,1,21.382,4.83,0.0,0.0,0.0,0.0,1,1,0
205,'1',1,1,1,23.635,4.553,0.0,0.0,0.0,0.0,1,1,0
207,'1',1,1,1,8.279,2.713,0.0,0.0,0.0,0.0,1,1,0
209,'1',1,1,1,14.52,4.385,0.0,0.0,0.0,0.0,1,1,0
210,'1',1,1,1,11.2,4.85,0.0,0.0,0.0,0.0,1,1,0
212,'1',1,1,1,23.52,5.273,0.0,0.0,0.0,0.0,1,1,0
214,'1',1,1,1,12.508,2.896,0.0,0.0,0.0,0.0,1,1,0
217,'1',1,1,1,14.476,2.367,0.0,0.0,0.0,0.0,1,1,0
220,'1',1,1,1,13.65,0.91,0.0,0.0,0.0,0.0,1,1,0
221,'1',1,1,1,6.301,2.061,0.0,0.0,0.0,0.0,1,1,0
222,'1',1,1,1,4.321,2.763,0.0,0.0,0.0,0.0,1,1,0
223,'1',1,1,1,2.94,0.61,0.0,0.0,0.0,0.0,1,1,0
224,'1',1,1,1,8.94,2.715,0.0,0.0,0.0,0.0,1,1,0
225,'1',1,1,1,5.021,2.207,0.0,0.0,0.0,0.0,1,1,0
226,'1',1,1,1,4.01,0.912,0.0,0.0,0.0,0.0,1,1,0
227,'1',1,1,1,4.545,1.224,0.0,0.0,0.0,0.0,1,1,0
231,'1',1,1,1,11.13,2.58,0.0,0.0,0.0,0.0,1,1,0
232,'1',1,1,1,31.68,13.875,0.0,0.0,0.0,0.0,1,1,0
233,'1',1,1,1,28.028,6.848,0.0,0.0,0.0,0.0,1,1,0
236,'1',1,1,1,17.78,1.254,0.0,0.0,0.0,0.0,1,1,0
237,'1',1,1,1,31.68,11.16,0.0,0.0,0.0,0.0,1,1,0
240,'1',1,1,1,53.79,15.285,0.0,0.0,0.0,0.0,1,1,0
241,'1',1,1,1,15.487,2.502,0.0,0.0,0.0,0.0,1,1,0
242,'1',1,1,1,24.26,13.78,0.0,0.0,0.0,0.0,1,1,0
243,'1',1,1,1,28.448,8.56,0.0,0.0,0.0,0.0,1,1,0
244,'1',1,1,1,24.16,7.0,0.0,0.0,0.0,0.0,1,1,0
245,'1',1,1,1,22.948,4.474,0.0,0.0,0.0,0.0,1,1,0
246,'1',1,1,1,33.877,5.118,0.0,0.0,0.0,0.0,1,1,0
247,'1',1,1,1,36.094,9.681,0.0,0.0,0.0,0.0,1,1,0
249,'1',1,1,1,24.16,2.45,0.0,0.0,0.0,0.0,1,1,0
250,'1',1,1,1,11.092,0.8,0.0,0.0,0.0,0.0,1,1,0
251,'1',1,1,1,13.34,3.523,0.0,0.0,0.0,0.0,1,1,0
252,'1',1,1,1,27.245,9.179,0.0,0.0,0.0,0.0,1,1,0
253,'1',1,1,1,13.34,4.901,0.0,0.0,0.0,0.0,1,1,0
255,'1',1,1,1,40.015,10.303,0.0,0.0,0.0,0.0,1,1,0
256,'1',1,1,1,31.217,11.942,0.0,0.0,0.0,0.0,1,1,0
258,'1',1,1,1,34.57,13.797,0.0,0.0,0.0,0.0,1,1,0
260,'1',1,1,1,17.642,3.698,0.0,0.0,0.0,0.0,1,1,0
261,'1',1,1,1,38.587,2.085,0.0,0.0,0.0,0.0,1,1,0
262,'1',1,1,1,33.137,11.98,0.0,0.0,0.0,0.0,1,1,0
263,'1',1,1,1,38.3,7.756,0.0,0.0,0.0,0.0,1,1,0
264,'1',1,1,1,25.502,4.016,0.0,0.0,0.0,0.0,1,1,0
267,'1',1,1,1,22.98,5.005,0.0,0.0,0.0,0.0,1,1,0
270,'1',1,1,1,40.62,9.375,0.0,0.0,0.0,0.0,1,1,0
272,'1',1,1,1,40.427,14.66,0.0,0.0,0.0,0.0,1,1,0
275,'1',1,1,1,24.18,4.107,0.0,0.0,0.0,0.0,1,1,0
276,'1',1,1,1,30.57,2.54,0.0,0.0,0.0,0.0,1,1,0
278,'1',1,1,1,25.61,3.887,0.0,0.0,0.0,0.0,1,1,0
279,'1',1,1,1,4.691,0.897,0.0,0.0,0.0,0.0,1,1,0
280,'1',1,1,1,4.247,0.371,0.0,0.0,0.0,0.0,1,1,0
281,'1',1,1,1,9.313,2.84,0.0,0.0,0.0,0.0,1,1,0
283,'1',1,1,1,15.0,2.985,0.0,0.0,0.0,0.0,1,1,0
284,'1',1,1,1,6.31,1.564,0.0,0.0,0.0,0.0,1,1,0
286,'1',1,1,1,2.91,0.715,0.0,0.0,0.0,0.0,1,1,0
287,'1',1,1,1,2.36,0.66,0.0,0.0,0.0,0.0,1,1,0
288,'1',1,1,1,13.751,3.137,0.0,0.0,0.0,0.0,1,1,0
289,'1',1,1,1,8.825,2.179,0.0,0.0,0.0,0.0,1,1,0
292,'1',1,1,1,27.932,4.047,0.0,0.0,0.0,0.0,1,1,0
293,'1',1,1,1,1.82,0.531,0.0,0.0,0.0,0.0,1,1,0
294,'1',1,1,1,5.894,0.856,0.0,0.0,0.0,0.0,1,1,0
295,'1',1,1,1,4.104,1.942,0.0,0.0,0.0,0.0,1,1,0
296,'1',1,1,1,5.709,0.826,0.0,0.0,0.0,0.0,1,1,0
298,'1',1,1,1,3.732,0.216,0.0,0.0,0.0,0.0,1,1,0
299,'1',1,1,1,5.601,0.864,0.0,0.0,0.0,0.0,1,1,0
...
0 / END OF LOAD DATA BEGIN FIXED SHUNT DATA
0 / END OF FIXED SHUNT DATA BEGIN GENERATOR DATA
1740,'1',99.652,11.441,52.66,-31.596,1.04,0,124.16,0.0,1.0,0.0,0.0,1.0,1,100.0,103.47,26.81,1,1.0,0,1.0,0,1.0,0,1.0,0,1.0
1741,'1',99.652,10.907,52.66,-31.596,1.04,0,124.16,0.0,1.0,0.0,0.0,1.0,1,100.0,103.47,50.92,1,1.0,0,1.0,0,1.0,0,1.0,0,1.0
1742,'1',99.652,10.445,52.66,-31.596,1.04,0,124.16,0.0,1.0,0.0,0.0,1.0,1,100.0,103.47,14.34,1,1.0,0,1.0,0,1.0,0,1.0,0,1.0
1743,'1',99.652,12.728,52.66,-31.596,1.04,0,124.16,0.0,1.0,0.0,0.0,1.0,1,100.0,103.47,18.78,1,1.0,0,1.0,0,1.0,0,1.0,0,1.0
1744,'1',99.652,10.018,52.66,-31.596,1.04,0,124.16,0.0,1.0,0.0,0.0,1.0,1,100.0,103.47,43.26,1,1.0,0,1.0,0,1.0,0,1.0,0,1.0
1745,'1',99.652,12.839,52.66,-31.596,1.04,0,124.16,0.0,1.0,0.0,0.0,1.0,1,100.0,103.47,28.95,1,1.0,0,1.0,0,1.0,0,1.0,0,1.0
1747,'1',29.423,8.876,8.876,-8.876,1.04,0,39.96,0.0,1.0,0.0,0.0,1.0,1,100.0,29.587,0.0,1,1.0,0,1.0,0,1.0,0,1.0,0,1.0
1748,'1',25.082,7.574,7.574,-7.574,1.04,0,39.96,0.0,1.0,0.0,0.0,1.0,1,100.0,25.247,0.0,1,1.0,0,1.0,0,1.0,0,1.0,0,1.0
1748,'2',21.88,6.613,6.613,-6.613,1.04,0,39.96,0.0,1.0,0.0,0.0,1.0,1,100.0,22.045,0.0,1,1.0,0,1.0,0,1.0,0,1.0,0,1.0
1750,'1',17.797,5.382,5.382,-5.382,1.04,0,34.56,0.0,1.0,0.0,0.0,1.0,1,100.0,17.939,0.0,1,1.0,0,1.0,0,1.0,0,1.0,0,1.0
1751,'1',14.257,4.32,4.32,-4.32,1.04,0,34.56,0.0,1.0,0.0,0.0,1.0,1,100.0,14.4,0.0,1,1.0,0,1.0,0,1.0,0,1.0,0,1.0
1757,'1',276.755,-2.659,605.8,-363.48,1.04,1754,1560.0,0.0,1.0,0.0,0.0,1.0,1,100.0,1300.0,256.94,1,1.0,0,1.0,0,1.0,0,1.0,0,1.0
1758,'1',527.04,112.992,605.8,-363.48,1.04,1754,1560.0,0.0,1.0,0.0,0.0,1.0,1,100.0,1300.0,527.04,1,1.0,0,1.0,0,1.0,0,1.0,0,1.0
1761,'1',15.217,4.74,4.74,-4.74,1.04,0,18.96,0.0,1.0,0.0,0.0,1.0,1,100.0,15.8,0.0,1,1.0,0,1.0,0,1.0,0,1.0,0,1.0
1764,'1',12.861,3.897,3.897,-3.897,1.04,0,31.17,0.0,1.0,0.0,0.0,1.0,1,100.0,12.99,0.0,1,1.0,0,1.0,0,1.0,0,1.0,0,1.0
1764,'2',14.091,4.266,4.266,-4.266,1.04,0,31.17,0.0,1.0,0.0,0.0,1.0,1,100.0,14.22,0.0,1,1.0,0,1.0,0,1.0,0,1.0,0,1.0
1764,'3',12.861,3.897,3.897,-3.897,1.04,0,31.17,0.0,1.0,0.0,0.0,1.0,1,100.0,12.99,0.0,1,1.0,0,1.0,0,1.0,0,1.0,0,1.0
1764,'4',22.105,6.67,6.67,-6.67,1.04,0,31.17,0.0,1.0,0.0,0.0,1.0,1,100.0,22.233,0.0,1,1.0,0,1.0,0,1.0,0,1.0,0,1.0
1768,'1',53.952,20.324,40.703,-40.703,1.04,0,42.36,0.0,1.0,0.0,0.0,1.0,1,100.0,135.678,0.0,1,1.0,0,1.0,0,1.0,0,1.0,0,1.0
1768,'2',172.254,20.324,51.729,-51.729,1.04,0,42.36,0.0,1.0,0.0,0.0,1.0,1,100.0,172.429,0.0,1,1.0,0,1.0,0,1.0,0,1.0,0,1.0
1768,'3',33.676,20.324,47.783,-47.783,1.04,0,42.36,0.0,1.0,0.0,0.0,1.0,1,100.0,159.277,0.0,1,1.0,0,1.0,0,1.0,0,1.0,0,1.0
1770,'1',4.815,-1.53,2.55,-1.53,1.04,0,6.0,0.0,1.0,0.0,0.0,1.0,1,100.0,5.0,0.52,1,1.0,0,1.0,0,1.0,0,1.0,0,1.0
1774,'1',3.535,0.959,1.71,-1.026,1.04,0,4.4,0.0,1.0,0.0,0.0,1.0,1,100.0,3.67,0.96,1,1.0,0,1.0,0,1.0,0,1.0,0,1.0
1774,'2',3.535,0.959,1.71,-1.026,1.04,0,4.4,0.0,1.0,0.0,0.0,1.0,1,100.0,3.67,1.63,1,1.0,0,1.0,0,1.0,0,1.0,0,1.0
1775,'1',3.535,0.9,1.71,-1.026,1.04,0,4.4,0.0,1.0,0.0,0.0,1.0,1,100.0,3.67,1.42,1,1.0,0,1.0,0,1.0,0,1.0,0,1.0
1775,'2',3.535,0.9,1.71,-1.026,1.04,0,4.4,0.0,1.0,0.0,0.0,1.0,1,100.0,3.67,0.73,1,1.0,0,1.0,0,1.0,0,1.0,0,1.0
1776,'1',3.535,0.653,1.71,-1.026,1.04,0,4.4,0.0,1.0,0.0,0.0,1.0,1,100.0,3.67,0.5,1,1.0,0,1.0,0,1.0,0,1.0,0,1.0
1776,'2',3.535,0.653,1.71,-1.026,1.04,0,4.4,0.0,1.0,0.0,0.0,1.0,1,100.0,3.67,1.21,1,1.0,0,1.0,0,1.0,0,1.0,0,1.0
1780,'1',2.709,0.818,0.818,-0.818,1.04,0,4.56,0.0,1.0,0.0,0.0,1.0,1,100.0,2.728,0.0,1,1.0,0,1.0,0,1.0,0,1.0,0,1.0
1781,'1',1.881,0.343,0.57,-0.57,1.04,0,4.56,0.0,1.0,0.0,0.0,1.0,1,100.0,1.9,0.0,1,1.0,0,1.0,0,1.0,0,1.0,0,1.0
1781,'2',1.907,0.343,0.578,-0.578,1.04,0,4.56,0.0,1.0,0.0,0.0,1.0,1,100.0,1.926,0.0,1,1.0,0,1.0,0,1.0,0,1.0,0,1.0
1782,'1',2.586,0.781,0.781,-0.781,1.04,0,4.56,0.0,1.0,0.0,0.0,1.0,1,100.0,2.605,0.0,1,1.0,0,1.0,0,1.0,0,1.0,0,1.0
1782,'2',2.025,0.613,0.613,-0.613,1.04,0,4.56,0.0,1.0,0.0,0.0,1.0,1,100.0,2.044,0.0,1,1.0,0,1.0,0,1.0,0,1.0,0,1.0
1786,'1',317.823,33.707,153.78,-92.268,1.03,1784,396.0,0.0,1.0,0.0,0.0,1.0,1,100.0,330.0,49.13,1,1.0,0,1.0,0,1.0,0,1.0,0,1.0
1787,'1',317.823,33.707,153.78,-92.268,1.03,1784,396.0,0.0,1.0,0.0,0.0,1.0,1,100.0,330.0,96.28,1,1.0,0,1.0,0,1.0,0,1.0,0,1.0
1788,'1',309.57,33.707,153.78,-92.268,1.03,1784,396.0,0.0,1.0,0.0,0.0,1.0,1,100.0,330.0,91.44,1,1.0,0,1.0,0,1.0,0,1.0,0,1.0
1790,'1',19.931,6.023,6.023,-6.023,1.04,0,35.64,0.0,1.0,0.0,0.0,1.0,1,100.0,20.078,0.0,1,1.0,0,1.0,0,1.0,0,1.0,0,1.0
1790,'2',14.703,4.455,4.455,-4.455,1.04,0,35.64,0.0,1.0,0.0,0.0,1.0,1,100.0,14.85,0.0,1,1.0,0,1.0,0,1.0,0,1.0,0,1.0
1793,'1',74.081,9.286,56.26,-33.756,1.04,0,132.64,0.0,1.0,0.0,0.0,1.0,1,100.0,110.53,45.79,1,1.0,0,1.0,0,1.0,0,1.0,0,1.0
1794,'1',106.451,9.629,56.26,-33.756,1.04,0,132.64,0.0,1.0,0.0,0.0,1.0,1,100.0,110.53,47.9,1,1.0,0,1.0,0,1.0,0,1.0,0,1.0
1795,'1',67.86,11.273,56.26,-33.756,1.04,0,132.64,0.0,1.0,0.0,0.0,1.0,1,100.0,110.53,14.2,1,1.0,0,1.0,0,1.0,0,1.0,0,1.0
1796,'1',85.101,7.608,56.26,-33.756,1.04,0,132.64,0.0,1.0,0.0,0.0,1.0,1,100.0,110.53,25.13,1,1.0,0,1.0,0,1.0,0,1.0,0,1.0
1797,'1',106.451,9.252,56.26,-33.756,1.04,0,132.64,0.0,1.0,0.0,0.0,1.0,1,100.0,110.53,33.77,1,1.0,0,1.0,0,1.0,0,1.0,0,1.0
1798,'1',106.451,13.366,56.26,-33.756,1.04,0,132.64,0.0,1.0,0.0,0.0,1.0,1,100.0,110.53,27.65,1,1.0,0,1.0,0,1.0,0,1.0,0,1.0
1804,'1',47.621,14.384,14.384,-14.384,1.04,0,78.84,0.0,1.0,0.0,0.0,1.0,1,100.0,47.947,0.0,1,1.0,0,1.0,0,1.0,0,1.0,0,1.0
1805,'1',32.734,7.131,9.918,-9.918,1.04,0,78.84,0.0,1.0,0.0,0.0,1.0,1,100.0,33.059,0.0,1,1.0,0,1.0,0,1.0,0,1.0,0,1.0
1809,'1',110.756,-3.264,58.53,-35.118,1.04,0,138.0,0.0,1.0,0.0,0.0,1.0,1,100.0,115.0,25.26,1,1.0,0,1.0,0,1.0,0,1.0,0,1.0
1810,'1',110.756,-2.054,58.53,-35.118,1.04,0,138.0,0.0,1.0,0.0,0.0,1.0,1,100.0,115.0,54.87,1,1.0,0,1.0,0,1.0,0,1.0,0,1.0
1811,'1',110.756,26.677,58.53,-40.971,1.041,1806,138.0,0.0,1.0,0.0,0.0,1.0,1,100.0,115.0,27.73,1,1.0,0,1.0,0,1.0,0,1.0,0,1.0
1812,'1',110.756,-1.807,58.53,-35.118,1.04,0,138.0,0.0,1.0,0.0,0.0,1.0,1,100.0,115.0,31.11,1,1.0,0,1.0,0,1.0,0,1.0,0,1.0
1818,'1',743.385,89.122,467.32,-280.392,1.04,1814,1523.88,0.0,1.0,0.0,0.0,1.0,1,100.0,1269.9,409.47,1,1.0,0,1.0,0,1.0,0,1.0,0,1.0
1820,'1',27.577,6.624,8.351,-8.351,1.04,0,62.64,0.0,1.0,0.0,0.0,1.0,1,100.0,27.836,0.0,1,1.0,0,1.0,0,1.0,0,1.0,0,1.0
1820,'2',49.564,6.624,14.947,-14.947,1.04,0,62.64,0.0,1.0,0.0,0.0,1.0,1,100.0,49.822,0.0,1,1.0,0,1.0,0,1.0,0,1.0,0,1.0
1820,'3',25.842,6.624,7.83,-7.83,1.04,0,62.64,0.0,1.0,0.0,0.0,1.0,1,100.0,26.1,0.0,1,1.0,0,1.0,0,1.0,0,1.0,0,1.0
1824,'1',16.611,5.023,5.023,-5.023,1.04,0,32.4,0.0,1.0,0.0,0.0,1.0,1,100.0,16.745,0.0,1,1.0,0,1.0,0,1.0,0,1.0,1,1.0
1826,'1',8.342,2.528,2.528,-2.528,1.04,0,20.22,0.0,1.0,0.0,0.0,1.0,1,100.0,8.425,0.0,1,1.0,0,1.0,0,1.0,0,1.0,0,1.0
1826,'2',9.131,2.764,2.764,-2.764,1.04,0,20.22,0.0,1.0,0.0,0.0,1.0,1,100.0,9.215,0.0,1,1.0,0,1.0,0,1.0,0,1.0,0,1.0
1829,'1',20.692,6.259,6.259,-6.259,1.04,0,41.904,0.0,1.0,0.0,0.0,1.0,1,100.0,20.865,0.0,1,1.0,0,1.0,0,1.0,0,1.0,0,1.0
1829,'2',17.287,5.238,5.238,-5.238,1.04,0,41.904,0.0,1.0,0.0,0.0,1.0,1,100.0,17.46,0.0,1,1.0,0,1.0,0,1.0,0,1.0,0,1.0
1830,'1',17.287,2.188,5.238,-5.238,1.04,0,41.904,0.0,1.0,0.0,0.0,1.0,1,100.0,17.46,0.0,1,1.0,0,1.0,0,1.0,0,1.0,0,1.0
1830,'2',18.437,2.188,5.583,-5.583,1.04,0,41.904,0.0,1.0,0.0,0.0,1.0,1,100.0,18.61,0.0,1,1.0,0,1.0,0,1.0,0,1.0,0,1.0
1830,'3',33.631,2.188,10.173,-10.173,1.04,0,41.904,0.0,1.0,0.0,0.0,1.0,1,100.0,33.91,0.0,1,1.0,0,1.0,0,1.0,0,1.0,0,1.0
1832,'1',25.73,7.775,7.775,-7.775,1.04,0,45.24,0.0,1.0,0.0,0.0,1.0,1,100.0,25.917,0.0,1,1.0,0,1.0,0,1.0,0,1.0,0,1.0
1832,'2',18.663,5.655,5.655,-5.655,1.04,0,45.24,0.0,1.0,0.0,0.0,1.0,1,100.0,18.85,0.0,1,1.0,0,1.0,0,1.0,0,1.0,0,1.0
1832,'3',34.211,10.319,10.319,-10.319,1.04,0,45.24,0.0,1.0,0.0,0.0,1.0,1,100.0,34.398,0.0,1,1.0,0,1.0,0,1.0,0,1.0,0,1.0
1832,'4',18.663,5.655,5.655,-5.655,1.04,0,45.24,0.0,1.0,0.0,0.0,1.0,1,100.0,18.85,0.0,1,1.0,0,1.0,0,1.0,0,1.0,0,1.0
1838,'1',202.853,1.388,126.86,-76.116,1.04,0,299.07,0.0,1.0,0.0,0.0,1.0,1,100.0,249.22,100.54,1,1.0,0,1.0,0,1.0,0,1.0,0,1.0
1839,'1',240.023,32.437,126.86,-76.116,1.04,1835,299.07,0.0,1.0,0.0,0.0,1.0,1,100.0,249.22,26.43,1,1.0,0,1.0,0,1.0,0,1.0,0,1.0
1840,'1',240.023,3.149,126.86,-76.116,1.04,0,299.07,0.0,1.0,0.0,0.0,1.0,1,100.0,249.22,109.59,1,1.0,0,1.0,0,1.0,0,1.0,0,1.0
1841,'1',240.023,-0.07,126.86,-76.116,1.04,0,299.07,0.0,1.0,0.0,0.0,1.0,1,100.0,249.22,106.81,1,1.0,0,1.0,0,1.0,0,1.0,0,1.0
1845,'1',182.286,8.843,96.34,-57.804,1.04,0,227.12,0.0,1.0,0.0,0.0,1.0,1,100.0,189.27,24.72,1,1.0,0,1.0,0,1.0,0,1.0,0,1.0
1846,'1',182.286,7.666,96.34,-57.804,1.04,0,227.12,0.0,1.0,0.0,0.0,1.0,1,100.0,189.27,33.63,1,1.0,0,1.0,0,1.0,0,1.0,0,1.0
1847,'1',182.286,8.405,96.34,-57.804,1.04,0,227.12,0.0,1.0,0.0,0.0,1.0,1,100.0,189.27,40.85,1,1.0,0,1.0,0,1.0,0,1.0,0,1.0
1851,'1',228.9,-3.973,120.97,-72.582,1.04,0,285.2,0.0,1.0,0.0,0.0,1.0,1,100.0,237.67,82.61,1,1.0,0,1.0,0,1.0,0,1.0,0,1.0
1852,'1',228.9,19.292,120.97,-72.582,1.041,1850,285.2,0.0,1.0,0.0,0.0,1.0,1,100.0,237.67,85.08,1,1.0,0,1.0,0,1.0,0,1.0,0,1.0
1853,'1',228.9,19.292,120.97,-72.582,1.041,1850,285.2,0.0,1.0,0.0,0.0,1.0,1,100.0,237.67,27.85,1,1.0,0,1.0,0,1.0,0,1.0,0,1.0
1854,'1',228.9,19.292,120.97,-72.582,1.041,1850,285.2,0.0,1.0,0.0,0.0,1.0,1,100.0,237.67,109.63,1,1.0,0,1.0,0,1.0,0,1.0,0,1.0
1855,'1',228.9,-0.639,120.97,-72.582,1.04,0,285.2,0.0,1.0,0.0,0.0,1.0,1,100.0,237.67,83.36,1,1.0,0,1.0,0,1.0,0,1.0,0,1.0
1856,'1',228.9,19.292,120.97,-72.582,1.041,1850,285.2,0.0,1.0,0.0,0.0,1.0,1,100.0,237.67,55.32,1,1.0,0,1.0,0,1.0,0,1.0,0,1.0
1858,'1',17.336,2.429,9.16,-5.496,1.04,0,21.6,0.0,1.0,0.0,0.0,1.0,1,100.0,18.0,8.14,1,1.0,0,1.0,0,1.0,0,1.0,0,1.0
1864,'1',163.852,28.481,86.6,-60.62,1.04,1861,204.16,0.0,1.0,0.0,0.0,1.0,1,100.0,170.13,75.2,1,1.0,0,1.0,0,1.0,0,1.0,0,1.0
1865,'1',163.852,28.481,86.6,-60.62,1.04,1861,204.16,0.0,1.0,0.0,0.0,1.0,1,100.0,170.13,24.19,1,1.0,0,1.0,0,1.0,0,1.0,0,1.0
1866,'1',163.852,1.809,86.6,-51.96,1.04,0,204.16,0.0,1.0,0.0,0.0,1.0,1,100.0,170.13,78.63,1,1.0,0,1.0,0,1.0,0,1.0,0,1.0
1867,'1',163.852,28.481,86.6,-60.62,1.04,1861,204.16,0.0,1.0,0.0,0.0,1.0,1,100.0,170.13,56.6,1,1.0,0,1.0,0,1.0,0,1.0,0,1.0
1868,'1',163.852,28.481,86.6,-51.96,1.04,1861,204.16,0.0,1.0,0.0,0.0,1.0,1,100.0,170.13,43.7,1,1.0,0,1.0,0,1.0,0,1.0,0,1.0
1869,'1',163.852,-0.151,86.6,-51.96,1.04,0,204.16,0.0,1.0,0.0,0.0,1.0,1,100.0,170.13,65.0,1,1.0,0,1.0,0,1.0,0,1.0,0,1.0
1871,'1',5.693,1.725,1.725,-1.725,1.04,0,13.8,0.0,1.0,0.0,0.0,1.0,1,100.0,5.75,0.0,1,1.0,0,1.0,0,1.0,0,1.0,0,1.0
1871,'2',6.931,2.096,2.096,-2.096,1.04,0,13.8,0.0,1.0,0.0,0.0,1.0,1,100.0,6.988,0.0,1,1.0,0,1.0,0,1.0,0,1.0,0,1.0
1873,'1',12.648,3.819,3.819,-3.819,1.04,0,19.92,0.0,1.0,0.0,0.0,1.0,1,100.0,12.731,0.0,1,1.0,0,1.0,0,1.0,0,1.0,0,1.0
1873,'2',11.047,3.339,3.339,-3.339,1.04,0,19.92,0.0,1.0,0.0,0.0,1.0,1,100.0,11.129,0.0,1,1.0,0,1.0,0,1.0,0,1.0,0,1.0
1874,'1',8.218,2.49,2.49,-2.49,1.04,0,19.92,0.0,1.0,0.0,0.0,1.0,1,100.0,8.3,0.0,1,1.0,0,1.0,0,1.0,0,1.0,0,1.0
1876,'1',20.032,6.052,6.052,-6.052,1.04,0,34.56,0.0,1.0,0.0,0.0,1.0,1,100.0,20.175,0.0,1,1.0,0,1.0,0,1.0,0,1.0,0,1.0
1880,'1',15.595,3.499,4.725,-4.725,1.04,0,5.04,0.0,1.0,0.0,0.0,1.0,1,100.0,15.75,0.0,1,1.0,0,1.0,0,1.0,0,1.0,0,1.0
1885,'1',316.179,30.225,95.49,-95.49,1.038,1882,514.08,0.0,1.0,0.0,0.0,1.0,1,100.0,318.299,0.0,1,1.0,0,1.0,0,1.0,0,1.0,0,1.0
1886,'1',311.834,30.225,94.186,-94.186,1.038,1882,514.08,0.0,1.0,0.0,0.0,1.0,1,100.0,313.954,0.0,1,1.0,0,1.0,0,1.0,0,1.0,0,1.0
1887,'1',229.708,30.225,69.549,-69.549,1.038,1882,514.08,0.0,1.0,0.0,0.0,1.0,1,100.0,231.829,0.0,1,1.0,0,1.0,0,1.0,0,1.0,0,1.0
1888,'1',286.382,30.225,86.551,-86.551,1.038,1882,514.08,0.0,1.0,0.0,0.0,1.0,1,100.0,288.503,0.0,1,1.0,0,1.0,0,1.0,0,1.0,0,1.0
1890,'1',22.277,6.75,6.75,-6.75,1.04,0,54.0,0.0,1.0,0.0,0.0,1.0,1,100.0,22.5,0.0,1,1.0,0,1.0,0,1.0,0,1.0,0,1.0
1891,'1',22.277,6.75,6.75,-6.75,1.04,0,54.0,0.0,1.0,0.0,0.0,1.0,1,100.0,22.5,0.0,1,1.0,0,1.0,0,1.0,0,1.0,0,1.0
1891,'2',22.277,6.75,6.75,-6.75,1.04,0,54.0,0.0,1.0,0.0,0.0,1.0,1,100.0,22.5,0.0,1,1.0,0,1.0,0,1.0,0,1.0,0,1.0
1893,'1',15.068,4.535,4.535,-4.535,1.04,0,11.52,0.0,1.0,0.0,0.0,1.0,1,100.0,15.116,0.0,1,1.0,0,1.0,0,1.0,0,1.0,0,1.0
1898,'1',198.646,48.551,146.23,-87.738,1.04,1895,376.56,0.0,1.0,0.0,0.0,1.0,1,100.0,313.8,106.65,1,1.0,0,1.0,0,1.0,0,1.0,0,1.0
1899,'1',223.566,48.551,146.23,-87.738,1.04,1895,376.56,0.0,1.0,0.0,0.0,1.0,1,100.0,313.8,156.49,1,1.0,0,1.0,0,1.0,0,1.0,0,1.0
1900,'1',208.881,48.551,146.23,-87.738,1.04,1895,376.56,0.0,1.0,0.0,0.0,1.0,1,100.0,313.8,127.12,1,1.0,0,1.0,0,1.0,0,1.0,0,1.0
1901,'1',187.681,48.551,146.23,-87.738,1.04,1895,376.56,0.0,1.0,0.0,0.0,1.0,1,100.0,313.8,84.72,1,1.0,0,1.0,0,1.0,0,1.0,0,1.0
1904,'1',12.976,3.92,3.92,-3.92,1.04,0,21.6,0.0,1.0,0.0,0.0,1.0,1,100.0,13.065,0.0,1,1.0,0,1.0,0,1.0,0,1.0,0,1.0
1904,'2',8.911,2.7,2.7,-2.7,1.04,0,21.6,0.0,1.0,0.0,0.0,1.0,1,100.0,9.0,0.0,1,1.0,0,1.0,0,1.0,0,1.0,0,1.0
1904,'3',8.911,2.7,2.7,-2.7,1.04,0,21.6,0.0,1.0,0.0,0.0,1.0,1,100.0,9.0,0.0,1,1.0,0,1.0,0,1.0,0,1.0,0,1.0
1906,'1',8.428,2.546,2.546,-2.546,1.04,0,14.4,0.0,1.0,0.0,0.0,1.0,1,100.0,8.487,0.0,1,1.0,0,1.0,0,1.0,0,1.0,0,1.0
1907,'1',5.941,1.8,1.8,-1.8,1.04,0,14.4,0.0,1.0,0.0,0.0,1.0,1,100.0,6.0,0.0,1,1.0,0,1.0,0,1.0,0,1.0,0,1.0
1907,'2',7.073,2.14,2.14,-2.14,1.04,0,14.4,0.0,1.0,0.0,0.0,1.0,1,100.0,7.132,0.0,1,1.0,0,1.0,0,1.0,0,1.0,0,1.0
1910,'1',17.822,5.4,5.4,-5.4,1.04,0,43.2,0.0,1.0,0.0,0.0,1.0,1,100.0,18.0,0.0,1,1.0,0,1.0,0,1.0,0,1.0,0,1.0
1910,'2',17.822,5.4,5.4,-5.4,1.04,0,43.2,0.0,1.0,0.0,0.0,1.0,1,100.0,18.0,0.0,1,1.0,0,1.0,0,1.0,0,1.0,0,1.0
1913,'1',4.334,0.665,2.29,-1.374,1.04,0,5.4,0.0,1.0,0.0,0.0,1.0,1,100.0,4.5,1.94,1,1.0,0,1.0,0,1.0,0,1.0,0,1.0
1916,'1',24.584,7.435,7.435,-7.435,1.04,0,48.0,0.0,1.0,0.0,0.0,1.0,1,100.0,24.782,0.0,1,1.0,0,1.0,0,1.0,0,1.0,0,1.0
1916,'2',19.802,6.0,6.0,-6.0,1.04,0,48.0,0.0,1.0,0.0,0.0,1.0,1,100.0,20.0,0.0,1,1.0,0,1.0,0,1.0,0,1.0,0,1.0
1916,'3',19.802,6.0,6.0,-6.0,1.04,0,48.0,0.0,1.0,0.0,0.0,1.0,1,100.0,20.0,0.0,1,1.0,0,1.0,0,1.0,0,1.0,0,1.0
1916,'4',19.802,6.0,6.0,-6.0,1.04,0,48.0,0.0,1.0,0.0,0.0,1.0,1,100.0,20.0,0.0,1,1.0,0,1.0,0,1.0,0,1.0,0,1.0
1916,'5',27.797,8.399,8.399,-8.399,1.04,0,48.0,0.0,1.0,0.0,0.0,1.0,1,100.0,27.995,0.0,1,1.0,0,1.0,0,1.0,0,1.0,0,1.0
1916,'6',27.725,8.377,8.377,-8.377,1.04,0,48.0,0.0,1.0,0.0,0.0,1.0,1,100.0,27.923,0.0,1,1.0,0,1.0,0,1.0,0,1.0,0,1.0
1922,'1',320.52,-70.68,442.7,-265.62,1.031,1919,1140.0,0.0,1.0,0.0,0.0,1.0,1,100.0,950.0,320.52,1,1.0,0,1.0,0,1.0,0,1.0,0,1.0
1927,'1',18.97,4.537,5.748,-5.748,1.04,0,45.99,0.0,1.0,0.0,0.0,1.0,1,100.0,19.16,0.0,1,1.0,0,1.0,0,1.0,0,1.0,0,1.0
1927,'2',18.97,4.537,5.748,-5.748,1.04,0,45.99,0.0,1.0,0.0,0.0,1.0,1,100.0,19.16,0.0,1,1.0,0,1.0,0,1.0,0,1.0,0,1.0
1928,'1',18.97,5.748,5.748,-5.748,1.04,0,45.99,0.0,1.0,0.0,0.0,1.0,1,100.0,19.16,0.0,1,1.0,0,1.0,0,1.0,0,1.0,0,1.0
1929,'1',23.605,6.688,7.138,-7.138,1.04,0,45.99,0.0,1.0,0.0,0.0,1.0,1,100.0,23.795,0.0,1,1.0,0,1.0,0,1.0,0,1.0,0,1.0
1931,'1',1.958,0.591,0.591,-0.591,1.04,0,3.18,0.0,1.0,0.0,0.0,1.0,1,100.0,1.971,0.0,1,1.0,0,1.0,0,1.0,0,1.0,0,1.0
1931,'2',1.312,0.397,0.397,-0.397,1.04,0,3.18,0.0,1.0,0.0,0.0,1.0,1,100.0,1.325,0.0,1,1.0,0,1.0,0,1.0,0,1.0,0,1.0
1932,'1',2.034,0.614,0.614,-0.614,1.04,0,3.18,0.0,1.0,0.0,0.0,1.0,1,100.0,2.047,0.0,1,1.0,0,1.0,0,1.0,0,1.0,0,1.0
1932,'2',1.952,0.589,0.589,-0.589,1.04,0,3.18,0.0,1.0,0.0,0.0,1.0,1,100.0,1.965,0.0,1,1.0,0,1.0,0,1.0,0,1.0,0,1.0
1937,'1',1175.463,127.354,449.14,-269.484,1.036,1934,1464.6,0.0,1.0,0.0,0.0,1.0,1,100.0,1220.5,473.43,1,1.0,0,1.0,0,1.0,0,1.0,0,1.0
1938,'1',1175.463,127.354,449.14,-269.484,1.036,1934,1464.6,0.0,1.0,0.0,0.0,1.0,1,100.0,1220.5,379.66,1,1.0,0,1.0,0,1.0,0,1.0,0,1.0
1940,'1',12.205,3.695,3.695,-3.695,1.04,0,27.42,0.0,1.0,0.0,0.0,1.0,1,100.0,12.318,0.0,1,1.0,0,1.0,0,1.0,0,1.0,0,1.0
1941,'1',14.864,4.493,4.493,-4.493,1.04,0,27.42,0.0,1.0,0.0,0.0,1.0,1,100.0,14.977,0.0,1,1.0,0,1.0,0,1.0,0,1.0,0,1.0
1943,'1',1.734,0.84,0.84,-0.504,1.04,0,2.16,0.0,1.0,0.0,0.0,1.0,1,100.0,1.8,0.26,1,1.0,0,1.0,0,1.0,0,1.0,0,1.0
1943,'2',1.734,0.84,0.84,-0.504,1.04,0,2.16,0.0,1.0,0.0,0.0,1.0,1,100.0,1.8,0.87,1,1.0,0,1.0,0,1.0,0,1.0,0,1.0
1946,'1',0.345,0.104,0.104,-0.104,1.04,0,0.72,0.0,1.0,0.0,0.0,1.0,1,100.0,0.348,0.0,1,1.0,0,1.0,0,1.0,0,1.0,1,1.0
1946,'2',0.578,0.18,0.18,-0.18,1.04,0,0.72,0.0,1.0,0.0,0.0,1.0,1,100.0,0.599,0.0,1,1.0,0,1.0,0,1.0,0,1.0,1,1.0
1947,'1',0.578,0.18,0.18,-0.18,1.04,0,0.72,0.0,1.0,0.0,0.0,1.0,1,100.0,0.6,0.0,1,1.0,0,1.0,0,1.0,0,1.0,1,1.0
1952,'1',88.63,23.803,132.03,-79.218,1.037,1949,340.0,0.0,1.0,0.0,0.0,1.0,1,100.0,283.33,37.67,1,1.0,0,1.0,0,1.0,0,1.0,0,1.0
1953,'1',33.18,23.803,132.03,-79.218,1.037,1949,340.0,0.0,1.0,0.0,0.0,1.0,1,100.0,283.33,33.18,1,1.0,0,1.0,0,1.0,0,1.0,0,1.0
1954,'1',75.56,23.803,132.03,-79.218,1.037,1949,340.0,0.0,1.0,0.0,0.0,1.0,1,100.0,283.33,75.56,1,1.0,0,1.0,0,1.0,0,1.0,0,1.0
1955,'1',105.804,23.803,132.03,-79.218,1.037,1949,340.0,0.0,1.0,0.0,0.0,1.0,1,100.0,283.33,81.83,1,1.0,0,1.0,0,1.0,0,1.0,0,1.0
1956,'1',89.23,23.803,132.03,-79.218,1.037,1949,340.0,0.0,1.0,0.0,0.0,1.0,1,100.0,283.33,89.23,1,1.0,0,1.0,0,1.0,0,1.0,0,1.0
1957,'1',86.358,23.803,132.03,-79.218,1.037,1949,340.0,0.0,1.0,0.0,0.0,1.0,1,100.0,283.33,34.64,1,1.0,0,1.0,0,1.0,0,1.0,0,1.0
1960,'1',4.815,2.55,2.55,-1.53,1.04,0,6.0,0.0,1.0,0.0,0.0,1.0,1,100.0,5.0,2.02,1,1.0,0,1.0,0,1.0,0,1.0,0,1.0
1964,'1',16.748,3.106,5.075,-5.075,1.04,0,40.5,0.0,1.0,0.0,0.0,1.0,1,100.0,16.915,0.0,1,1.0,0,1.0,0,1.0,0,1.0,0,1.0
1964,'2',19.543,3.106,5.913,-5.913,1.04,0,40.5,0.0,1.0,0.0,0.0,1.0,1,100.0,19.71,0.0,1,1.0,0,1.0,0,1.0,0,1.0,0,1.0
1965,'1',22.514,3.645,6.804,-6.804,1.04,0,40.5,0.0,1.0,0.0,0.0,1.0,1,100.0,22.681,0.0,1,1.0,0,1.0,0,1.0,0,1.0,0,1.0
1965,'2',16.708,3.645,5.063,-5.063,1.04,0,40.5,0.0,1.0,0.0,0.0,1.0,1,100.0,16.875,0.0,1,1.0,0,1.0,0,1.0,0,1.0,0,1.0
1967,'1',5.008,2.65,2.65,-1.59,1.04,0,6.24,0.0,1.0,0.0,0.0,1.0,1,100.0,5.2,0.68,1,1.0,0,1.0,0,1.0,0,1.0,0,1.0
1967,'2',5.008,2.65,2.65,-1.59,1.04,0,6.24,0.0,1.0,0.0,0.0,1.0,1,100.0,5.2,1.39,1,1.0,0,1.0,0,1.0,0,1.0,0,1.0
1970,'1',3.082,1.63,1.63,-0.978,1.04,0,3.84,0.0,1.0,0.0,0.0,1.0,1,100.0,3.2,0.58,1,1.0,0,1.0,0,1.0,0,1.0,0,1.0
1972,'1',3.535,1.442,1.71,-1.026,1.04,0,4.4,0.0,1.0,0.0,0.0,1.0,1,100.0,3.67,1.46,1,1.0,0,1.0,0,1.0,0,1.0,0,1.0
1972,'2',3.535,1.442,1.71,-1.026,1.04,0,4.4,0.0,1.0,0.0,0.0,1.0,1,100.0,3.67,1.08,1,1.0,0,1.0,0,1.0,0,1.0,0,1.0
1973,'1',3.535,1.293,1.71,-1.026,1.04,0,4.4,0.0,1.0,0.0,0.0,1.0,1,100.0,3.67,1.15,1,1.0,0,1.0,0,1.0,0,1.0,0,1.0
1973,'2',3.535,1.293,1.71,-1.026,1.04,0,4.4,0.0,1.0,0.0,0.0,1.0,1,100.0,3.67,0.83,1,1.0,0,1.0,0,1.0,0,1.0,0,1.0
1974,'1',3.535,0.853,1.71,-1.026,1.04,0,4.4,0.0,1.0,0.0,0.0,1.0,1,100.0,3.67,0.9,1,1.0,0,1.0,0,1.0,0,1.0,0,1.0
1974,'2',3.535,0.853,1.71,-1.026,1.04,0,4.4,0.0,1.0,0.0,0.0,1.0,1,100.0,3.67,1.76,1,1.0,0,1.0,0,1.0,0,1.0,0,1.0
1977,'1',19.059,5.775,5.775,-5.775,1.04,0,46.2,0.0,1.0,0.0,0.0,1.0,1,100.0,19.25,0.0,1,1.0,0,1.0,0,1.0,0,1.0,0,1.0
1979,'1',24.077,11.65,11.65,-6.99,1.04,0,30.0,0.0,1.0,0.0,0.0,1.0,1,100.0,25.0,7.45,1,1.0,0,1.0,0,1.0,0,1.0,0,1.0
1981,'1',194.036,-2.621,102.55,-61.53,1.042,1980,241.76,0.0,1.0,0.0,0.0,1.0,1,100.0,201.47,97.56,1,1.0,0,1.0,0,1.0,0,1.0,0,1.0
1982,'1',159.805,-2.621,102.55,-61.53,1.042,1980,241.76,0.0,1.0,0.0,0.0,1.0,1,100.0,201.47,53.38,1,1.0,0,1.0,0,1.0,0,1.0,0,1.0
1983,'1',135.586,-4.951,102.55,-61.53,1.04,0,241.76,0.0,1.0,0.0,0.0,1.0,1,100.0,201.47,84.57,1,1.0,0,1.0,0,1.0,0,1.0,0,1.0
1985,'1',15.678,4.745,4.745,-4.745,1.04,0,33.6,0.0,1.0,0.0,0.0,1.0,1,100.0,15.816,0.0,1,1.0,0,1.0,0,1.0,0,1.0,0,1.0
1987,'1',13.465,4.041,4.041,-4.041,1.04,0,1.26,0.0,1.0,0.0,0.0,1.0,1,100.0,13.47,0.0,1,1.0,0,1.0,0,1.0,0,1.0,0,1.0
1987,'2',15.761,4.74,4.74,-4.74,1.04,0,1.26,0.0,1.0,0.0,0.0,1.0,1,100.0,15.8,0.0,1,1.0,0,1.0,0,1.0,0,1.0,0,1.0
1993,'1',22.093,3.654,6.666,-6.666,1.04,0,31.11,0.0,1.0,0.0,0.0,1.0,1,100.0,22.221,0.0,1,1.0,0,1.0,0,1.0,0,1.0,0,1.0
1993,'2',12.832,3.654,3.888,-3.888,1.04,0,31.11,0.0,1.0,0.0,0.0,1.0,1,100.0,12.96,0.0,1,1.0,0,1.0,0,1.0,0,1.0,0,1.0
1994,'1',12.832,3.888,3.888,-3.888,1.04,0,31.11,0.0,1.0,0.0,0.0,1.0,1,100.0,12.96,0.0,1,1.0,0,1.0,0,1.0,0,1.0,0,1.0
1994,'2',17.672,5.34,5.34,-5.34,1.04,0,31.11,0.0,1.0,0.0,0.0,1.0,1,100.0,17.8,0.0,1,1.0,0,1.0,0,1.0,0,1.0,0,1.0
1996,'1',28.296,2.835,13.69,-8.214,1.04,1995,100.0,0.0,1.0,0.0,0.0,1.0,1,100.0,29.38,6.11,1,1.0,0,1.0,0,1.0,0,1.0,0,1.0
1997,'1',28.296,13.69,13.69,-8.214,1.04,0,35.26,0.0,1.0,0.0,0.0,1.0,1,100.0,29.38,3.15,1,1.0,0,1.0,0,1.0,0,1.0,0,1.0
1997,'2',28.296,13.69,13.69,-8.214,1.04,0,35.26,0.0,1.0,0.0,0.0,1.0,1,100.0,29.38,5.59,1,1.0,0,1.0,0,1.0,0,1.0,0,1.0
1997,'3',28.296,13.69,13.69,-8.214,1.04,0,35.26,0.0,1.0,0.0,0.0,1.0,1,100.0,29.38,13.28,1,1.0,0,1.0,0,1.0,0,1.0,0,1.0
1999,'1',28.296,-0.01,13.69,-8.214,1.04,0,35.26,0.0,1.0,0.0,0.0,1.0,1,100.0,29.38,5.04,1,1.0,0,1.0,0,1.0,0,1.0,0,1.0
1999,'2',28.296,-0.01,13.69,-8.214,1.04,0,35.26,0.0,1.0,0.0,0.0,1.0,1,100.0,29.38,4.0,1,1.0,0,1.0,0,1.0,0,1.0,0,1.0
2001,'1',1.926,0.93,0.93,-0.558,1.04,0,2.4,0.0,1.0,0.0,0.0,1.0,1,100.0,2.0,0.95,1,1.0,0,1.0,0,1.0,0,1.0,0,1.0
2001,'2',1.926,0.93,0.93,-0.558,1.04,0,2.4,0.0,1.0,0.0,0.0,1.0,1,100.0,2.0,0.36,1,1.0,0,1.0,0,1.0,0,1.0,0,1.0
2001,'3',1.926,0.93,0.93,-0.558,1.04,0,2.4,0.0,1.0,0.0,0.0,1.0,1,100.0,2.0,0.59,1,1.0,0,1.0,0,1.0,0,1.0,0,1.0
2001,'4',1.926,0.93,0.93,-0.558,1.04,0,2.4,0.0,1.0,0.0,0.0,1.0,1,100.0,2.0,0.48,1,1.0,0,1.0,0,1.0,0,1.0,0,1.0
2001,'5',1.926,0.93,0.93,-0.558,1.04,0,2.4,0.0,1.0,0.0,0.0,1.0,1,100.0,2.0,0.66,1,1.0,0,1.0,0,1.0,0,1.0,0,1.0
2003,'1',13.12,1.505,3.959,-3.959,1.04,0,18.96,0.0,1.0,0.0,0.0,1.0,1,100.0,13.198,0.0,1,1.0,0,1.0,0,1.0,0,1.0,0,1.0
2005,'1',30.64,-0.314,9.261,-9.261,1.04,0,56.16,0.0,1.0,0.0,0.0,1.0,1,100.0,30.871,0.0,1,1.0,0,1.0,0,1.0,0,1.0,0,1.0
2006,'1',27.042,5.155,8.182,-8.182,1.04,0,56.16,0.0,1.0,0.0,0.0,1.0,1,100.0,27.273,0.0,1,1.0,0,1.0,0,1.0,0,1.0,0,1.0
2009,'1',19.753,5.985,5.985,-5.985,1.04,0,47.88,0.0,1.0,0.0,0.0,1.0,1,100.0,19.95,0.0,1,1.0,0,1.0,0,1.0,0,1.0,0,1.0
2010,'1',19.332,11.97,11.97,-11.97,1.04,0,47.88,0.0,1.0,0.0,0.0,1.0,1,100.0,39.9,0.0,1,1.0,0,1.0,0,1.0,0,1.0,0,1.0
2010,'2',25.3,7.649,7.649,-7.649,1.04,0,47.88,0.0,1.0,0.0,0.0,1.0,1,100.0,25.498,0.0,1,1.0,0,1.0,0,1.0,0,1.0,0,1.0
2010,'3',19.753,5.985,5.985,-5.985,1.04,0,47.88,0.0,1.0,0.0,0.0,1.0,1,100.0,19.95,0.0,1,1.0,0,1.0,0,1.0,0,1.0,0,1.0
2014,'1',150.775,30.893,115.35,-69.21,1.04,2011,297.04,0.0,1.0,0.0,0.0,1.0,1,100.0,247.53,103.69,1,1.0,0,1.0,0,1.0,0,1.0,0,1.0
2015,'1',183.429,1.462,115.35,-69.21,1.04,0,297.04,0.0,1.0,0.0,0.0,1.0,1,100.0,247.53,27.66,1,1.0,0,1.0,0,1.0,0,1.0,0,1.0
2016,'1',238.396,30.893,115.35,-69.21,1.04,2011,297.04,0.0,1.0,0.0,0.0,1.0,1,100.0,247.53,112.93,1,1.0,0,1.0,0,1.0,0,1.0,0,1.0
2017,'1',238.396,30.893,115.35,-69.21,1.04,2011,297.04,0.0,1.0,0.0,0.0,1.0,1,100.0,247.53,48.25,1,1.0,0,1.0,0,1.0,0,1.0,0,1.0
2018,'1',141.026,30.893,115.35,-69.21,1.04,2011,297.04,0.0,1.0,0.0,0.0,1.0,1,100.0,247.53,52.79,1,1.0,0,1.0,0,1.0,0,1.0,0,1.0
2019,'1',146.916,30.893,115.35,-69.21,1.04,2011,297.04,0.0,1.0,0.0,0.0,1.0,1,100.0,247.53,64.57,1,1.0,0,1.0,0,1.0,0,1.0,0,1.0
0 / END OF GENERATOR DATA BEGIN BRANCH DATA
1,95,'1',0.04327,0.10271,0.00256,71.7,71.7,71.7,0.0,0.0,0.0,0.0,1,1,10.87,1,1.0,0,1.0,0,1.0,0,1.0
2,1,'1',0.03074,0.08122,0.00134,69.3,69.3,69.3,0.0,0.0,0.0,0.0,1,1,7.35,1,1.0,0,1.0,0,1.0,0,1.0
3,53,'1',0.02438,0.05724,0.00059,44.8,44.8,44.8,0.0,0.0,0.0,0.0,1,1,4.52,1,1.0,0,1.0,0,1.0,0,1.0
3,67,'1',0.05612,0.17261,0.00395,47.7,47.7,47.7,0.0,0.0,0.0,0.0,1,1,14.89,1,1.0,0,1.0,0,1.0,0,1.0
4,5,'1',0.0003,0.00107,0.0,82.8,82.8,82.8,0.0,0.0,0.0,0.0,1,1,0.0,1,1.0,0,1.0,0,1.0,0,1.0
4,191,'1',0.01607,0.04144,0.01127,54.8,54.8,54.8,0.0,0.0,0.0,0.0,1,1,11.98,1,1.0,0,1.0,0,1.0,0,1.0
4,192,'1',0.05254,0.16625,0.00469,33.0,33.0,33.0,0.0,0.0,0.0,0.0,1,1,15.2,1,1.0,0,1.0,0,1.0,0,1.0
4,201,'1',0.13401,0.31389,0.00527,58.2,58.2,58.2,0.0,0.0,0.0,0.0,1,1,22.58,1,1.0,0,1.0,0,1.0,0,1.0
4,207,'1',0.10204,0.20536,0.00623,45.0,45.0,45.0,0.0,0.0,0.0,0.0,1,1,19.52,1,1.0,0,1.0,0,1.0,0,1.0
4,210,'1',0.05588,0.09338,0.00812,39.0,39.0,39.0,0.0,0.0,0.0,0.0,1,1,14.38,1,1.0,0,1.0,0,1.0,0,1.0
4,276,'1',0.10507,0.22654,0.00602,62.8,62.8,62.8,0.0,0.0,0.0,0.0,1,1,20.02,1,1.0,0,1.0,0,1.0,0,1.0
4,354,'1',0.03809,0.09277,0.00129,54.6,54.6,54.6,0.0,0.0,0.0,0.0,1,1,7.98,1,1.0,0,1.0,0,1.0,0,1.0
6,4,'1',0.02589,0.06365,0.00135,66.2,66.2,66.2,0.0,0.0,0.0,0.0,1,1,5.75,1,1.0,0,1.0,0,1.0,0,1.0
6,124,'1',0.03242,0.09724,0.00154,62.3,62.3,62.3,0.0,0.0,0.0,0.0,1,1,7.29,1,1.0,0,1.0,0,1.0,0,1.0
6,191,'1',0.04859,0.10302,0.0091,58.3,58.3,58.3,0.0,0.0,0.0,0.0,1,1,17.08,1,1.0,0,1.0,0,1.0,0,1.0
7,9,'1',0.00021,0.00114,0.0,414.0,414.0,414.0,0.0,0.0,0.0,0.0,1,1,0.0,1,1.0,0,1.0,0,1.0,0,1.0
8,195,'1',0.00986,0.02697,0.00199,53.1,53.1,53.1,0.0,0.0,0.0,0.0,1,1,4.01,1,1.0,0,1.0,0,1.0,0,1.0
8,196,'1',0.00814,0.01812,0.00374,130.2,130.2,130.2,0.0,0.0,0.0,0.0,1,1,4.54,1,1.0,0,1.0,0,1.0,0,1.0
8,330,'1',0.01447,0.03495,0.00027,57.1,57.1,57.1,0.0,0.0,0.0,0.0,1,1,2.54,1,1.0,0,1.0,0,1.0,0,1.0
9,13,'1',0.00229,0.01313,0.00106,246.1,246.1,246.1,0.0,0.0,0.0,0.0,1,1,2.84,1,1.0,0,1.0,0,1.0,0,1.0
10,173,'1',0.00409,0.02949,0.00252,183.2,183.2,183.2,0.0,0.0,0.0,0.0,1,1,6.39,1,1.0,0,1.0,0,1.0,0,1.0
11,194,'1',0.02793,0.07798,0.00316,53.8,53.8,53.8,0.0,0.0,0.0,0.0,1,1,9.97,1,1.0,0,1.0,0,1.0,0,1.0
11,426,'1',0.00977,0.02571,0.00188,62.4,62.4,62.4,0.0,0.0,0.0,0.0,1,1,4.88,1,1.0,0,1.0,0,1.0,0,1.0
11,439,'1',0.01065,0.02922,0.00073,56.3,56.3,56.3,0.0,0.0,0.0,0.0,1,1,3.81,1,1.0,0,1.0,0,1.0,0,1.0
12,14,'1',0.01389,0.03578,0.0005,60.0,60.0,60.0,0.0,0.0,0.0,0.0,1,1,3.24,1,1.0,0,1.0,0,1.0,0,1.0
12,412,'1',0.03383,0.07323,0.00175,75.0,75.0,75.0,0.0,0.0,0.0,0.0,1,1,7.4,1,1.0,0,1.0,0,1.0,0,1.0
12,412,'2',0.03383,0.07323,0.00175,75.0,75.0,75.0,0.0,0.0,0.0,0.0,1,1,7.4,1,1.0,0,1.0,0,1.0,0,1.0
13,257,'1',0.0087,0.03396,0.03219,214.3,214.3,214.3,0.0,0.0,0.0,0.0,1,1,18.2,1,1.0,0,1.0,0,1.0,0,1.0
13,265,'1',0.00659,0.03908,0.0269,218.8,218.8,218.8,0.0,0.0,0.0,0.0,1,1,17.08,1,1.0,0,1.0,0,1.0,0,1.0
13,329,'1',0.00264,0.01373,0.00772,236.8,236.8,236.8,0.0,0.0,0.0,0.0,1,1,6.99,1,1.0,0,1.0,0,1.0,0,1.0
15,8,'1',0.00891,0.01924,0.00072,74.2,74.2,74.2,0.0,0.0,0.0,0.0,1,1,2.6,1,1.0,0,1.0,0,1.0,0,1.0
15,264,'1',0.00813,0.01726,0.00511,70.3,70.3,70.3,0.0,0.0,0.0,0.0,1,1,6.28,1,1.0,0,1.0,0,1.0,0,1.0
15,323,'1',0.03021,0.07932,0.00127,69.1,69.1,69.1,0.0,0.0,0.0,0.0,1,1,6.6,1,1.0,0,1.0,0,1.0,0,1.0
16,18,'1',0.0149,0.0381,0.00092,65.3,65.3,65.3,0.0,0.0,0.0,0.0,1,1,3.37,1,1.0,0,1.0,0,1.0,0,1.0
17,16,'1',0.0185,0.03503,0.00068,58.2,58.2,58.2,0.0,0.0,0.0,0.0,1,1,2.6,1,1.0,0,1.0,0,1.0,0,1.0
17,63,'1',0.04841,0.09586,0.00166,58.4,58.4,58.4,0.0,0.0,0.0,0.0,1,1,7.98,1,1.0,0,1.0,0,1.0,0,1.0
17,180,'1',0.01114,0.02965,0.01273,80.0,80.0,80.0,0.0,0.0,0.0,0.0,1,1,14.02,1,1.0,0,1.0,0,1.0,0,1.0
19,21,'1',0.00025,0.00116,0.0,165.6,165.6,165.6,0.0,0.0,0.0,0.0,1,1,0.0,1,1.0,0,1.0,0,1.0,0,1.0
20,18,'1',0.01014,0.02702,0.0003,60.7,60.7,60.7,0.0,0.0,0.0,0.0,1,1,2.22,1,1.0,0,1.0,0,1.0,0,1.0
20,64,'1',0.01277,0.03556,0.00503,53.9,53.9,53.9,0.0,0.0,0.0,0.0,1,1,7.72,1,1.0,0,1.0,0,1.0,0,1.0
21,92,'1',0.01189,0.04169,0.01094,193.4,193.4,193.4,0.0,0.0,0.0,0.0,1,1,12.02,1,1.0,0,1.0,0,1.0,0,1.0
22,577,'1',0.046,0.07097,0.00477,56.3,56.3,56.3,0.0,0.0,0.0,0.0,1,1,13.31,1,1.0,0,1.0,0,1.0,0,1.0
24,23,'1',0.01954,0.05007,0.00171,44.9,44.9,44.9,0.0,0.0,0.0,0.0,1,1,6.04,1,1.0,0,1.0,0,1.0,0,1.0
25,26,'1',0.0,0.001,0.0,82.8,82.8,82.8,0.0,0.0,0.0,0.0,1,1,0.0,1,1.0,0,1.0,0,1.0,0,1.0
25,69,'1',0.03099,0.08461,0.00075,48.7,48.7,48.7,0.0,0.0,0.0,0.0,1,1,5.05,1,1.0,0,1.0,0,1.0,0,1.0
25,324,'1',0.05501,0.14863,0.0122,64.6,64.6,64.6,0.0,0.0,0.0,0.0,1,1,24.16,1,1.0,0,1.0,0,1.0,0,1.0
25,352,'1',0.00927,0.02691,0.00532,58.3,58.3,58.3,0.0,0.0,0.0,0.0,1,1,7.18,1,1.0,0,1.0,0,1.0,0,1.0
27,28,'1',0.00027,0.00112,0.0,82.8,82.8,82.8,0.0,0.0,0.0,0.0,1,1,0.0,1,1.0,0,1.0,0,1.0,0,1.0
27,303,'1',0.0175,0.04935,0.00133,52.5,52.5,52.5,0.0,0.0,0.0,0.0,1,1,4.9,1,1.0,0,1.0,0,1.0,0,1.0
29,27,'1',0.03729,0.08293,0.00079,55.4,55.4,55.4,0.0,0.0,0.0,0.0,1,1,6.2,1,1.0,0,1.0,0,1.0,0,1.0
29,144,'1',0.01518,0.04249,0.00288,65.3,65.3,65.3,0.0,0.0,0.0,0.0,1,1,7.41,1,1.0,0,1.0,0,1.0,0,1.0
30,121,'1',0.04104,0.11293,0.00424,62.3,62.3,62.3,0.0,0.0,0.0,0.0,1,1,12.97,1,1.0,0,1.0,0,1.0,0,1.0
30,374,'1',0.06457,0.16601,0.00349,59.1,59.1,59.1,0.0,0.0,0.0,0.0,1,1,12.99,1,1.0,0,1.0,0,1.0,0,1.0
32,226,'1',0.02188,0.05892,0.00142,65.4,65.4,65.4,0.0,0.0,0.0,0.0,1,1,5.75,1,1.0,0,1.0,0,1.0,0,1.0
32,287,'1',0.04149,0.07396,0.00185,71.6,71.6,71.6,0.0,0.0,0.0,0.0,1,1,7.14,1,1.0,0,1.0,0,1.0,0,1.0
33,32,'1',0.02363,0.05725,0.00363,100.0,100.0,100.0,0.0,0.0,0.0,0.0,1,1,9.07,1,1.0,0,1.0,0,1.0,0,1.0
33,45,'1',0.01601,0.04724,0.00496,61.8,61.8,61.8,0.0,0.0,0.0,0.0,1,1,8.34,1,1.0,0,1.0,0,1.0,0,1.0
34,36,'1',0.00027,0.001,0.0,200.0,200.0,200.0,0.0,0.0,0.0,0.0,1,1,0.0,1,1.0,0,1.0,0,1.0,0,1.0
35,149,'1',0.00928,0.02211,0.00043,66.4,66.4,66.4,0.0,0.0,0.0,0.0,1,1,2.4,1,1.0,0,1.0,0,1.0,0,1.0
35,151,'1',0.00318,0.01048,0.00051,82.7,82.7,82.7,0.0,0.0,0.0,0.0,1,1,1.39,1,1.0,0,1.0,0,1.0,0,1.0
35,151,'2',0.00318,0.01048,0.00051,82.7,82.7,82.7,0.0,0.0,0.0,0.0,1,1,1.39,1,1.0,0,1.0,0,1.0,0,1.0
36,37,'1',0.00631,0.03158,0.00755,243.3,243.3,243.3,0.0,0.0,0.0,0.0,1,1,9.57,1,1.0,0,1.0,0,1.0,0,1.0
36,114,'1',0.00504,0.03449,0.13787,350.0,350.0,350.0,0.0,0.0,0.0,0.0,1,1,36.05,1,1.0,0,1.0,0,1.0,0,1.0
36,114,'2',0.00504,0.03449,0.13787,350.0,350.0,350.0,0.0,0.0,0.0,0.0,1,1,36.05,1,1.0,0,1.0,0,1.0,0,1.0
36,411,'1',0.00629,0.03107,0.00742,264.1,264.1,264.1,0.0,0.0,0.0,0.0,1,1,10.08,1,1.0,0,1.0,0,1.0,0,1.0
37,136,'1',0.00514,0.02521,0.03353,226.0,226.0,226.0,0.0,0.0,0.0,0.0,1,1,15.66,1,1.0,0,1.0,0,1.0,0,1.0
38,145,'1',0.00866,0.01765,0.00018,62.1,62.1,62.1,0.0,0.0,0.0,0.0,1,1,1.36,1,1.0,0,1.0,0,1.0,0,1.0
38,281,'1',0.01075,0.03111,0.00205,55.7,55.7,55.7,0.0,0.0,0.0,0.0,1,1,4.96,1,1.0,0,1.0,0,1.0,0,1.0
39,35,'1',0.01386,0.03798,0.00105,68.3,68.3,68.3,0.0,0.0,0.0,0.0,1,1,3.88,1,1.0,0,1.0,0,1.0,0,1.0
39,40,'1',0.0,0.001,0.0,82.8,82.8,82.8,0.0,0.0,0.0,0.0,1,1,0.0,1,1.0,0,1.0,0,1.0,0,1.0
39,41,'1',0.01749,0.05347,0.00123,68.1,68.1,68.1,0.0,0.0,0.0,0.0,1,1,5.08,1,1.0,0,1.0,0,1.0,0,1.0
40,146,'1',0.01479,0.02784,0.00026,59.1,59.1,59.1,0.0,0.0,0.0,0.0,1,1,0.0,1,1.0,0,1.0,0,1.0,0,1.0
41,412,'1',0.01536,0.04278,0.0005,72.7,72.7,72.7,0.0,0.0,0.0,0.0,1,1,3.13,1,1.0,0,1.0,0,1.0,0,1.0
42,43,'1',0.00023,0.00116,0.0,82.8,82.8,82.8,0.0,0.0,0.0,0.0,1,1,0.0,1,1.0,0,1.0,0,1.0,0,1.0
42,147,'1',0.01021,0.02569,0.00031,85.0,85.0,85.0,0.0,0.0,0.0,0.0,1,1,1.89,1,1.0,0,1.0,0,1.0,0,1.0
42,172,'1',0.01034,0.02954,0.00188,55.8,55.8,55.8,0.0,0.0,0.0,0.0,1,1,4.8,1,1.0,0,1.0,0,1.0,0,1.0
44,45,'1',0.00028,0.00119,0.0,82.8,82.8,82.8,0.0,0.0,0.0,0.0,1,1,0.0,1,1.0,0,1.0,0,1.0,0,1.0
46,31,'1',0.05038,0.10012,0.00098,53.7,53.7,53.7,0.0,0.0,0.0,0.0,1,1,5.73,1,1.0,0,1.0,0,1.0,0,1.0
47,50,'1',0.0344,0.09608,0.00122,53.3,53.3,53.3,0.0,0.0,0.0,0.0,1,1,6.98,1,1.0,0,1.0,0,1.0,0,1.0
48,49,'1',0.00024,0.00112,0.0,82.8,82.8,82.8,0.0,0.0,0.0,0.0,1,1,0.0,1,1.0,0,1.0,0,1.0,0,1.0
49,50,'1',0.02865,0.06052,0.00083,50.0,50.0,50.0,0.0,0.0,0.0,0.0,1,1,4.61,1,1.0,0,1.0,0,1.0,0,1.0
49,1700,'1',0.04331,0.11095,0.00129,55.9,55.9,55.9,0.0,0.0,0.0,0.0,1,1,7.51,1,1.0,0,1.0,0,1.0,0,1.0
50,51,'1',0.00027,0.00119,0.0,82.8,82.8,82.8,0.0,0.0,0.0,0.0,1,1,0.0,1,1.0,0,1.0,0,1.0,0,1.0
50,1705,'1',0.01821,0.04815,0.00344,57.0,57.0,57.0,0.0,0.0,0.0,0.0,1,1,7.42,1,1.0,0,1.0,0,1.0,0,1.0
52,297,'1',0.03139,0.07961,0.00091,55.5,55.5,55.5,0.0,0.0,0.0,0.0,1,1,6.11,1,1.0,0,1.0,0,1.0,0,1.0
52,1907,'1',0.07425,0.14976,0.0053,58.1,58.1,58.1,0.0,0.0,0.0,0.0,1,1,14.77,1,1.0,0,1.0,0,1.0,0,1.0
53,52,'1',0.0326,0.07476,0.00221,47.7,47.7,47.7,0.0,0.0,0.0,0.0,1,1,7.63,1,1.0,0,1.0,0,1.0,0,1.0
53,54,'1',0.00027,0.00112,0.0,82.8,82.8,82.8,0.0,0.0,0.0,0.0,1,1,0.0,1,1.0,0,1.0,0,1.0,0,1.0
55,57,'1',0.0003,0.0011,0.0,414.0,414.0,414.0,0.0,0.0,0.0,0.0,1,1,0.0,1,1.0,0,1.0,0,1.0,0,1.0
55,1614,'1',0.00798,0.04074,0.02479,183.5,183.5,183.5,0.0,0.0,0.0,0.0,1,1,17.41,1,1.0,0,1.0,0,1.0,0,1.0
58,56,'1',0.02677,0.04946,0.00059,59.6,59.6,59.6,0.0,0.0,0.0,0.0,1,1,3.35,1,1.0,0,1.0,0,1.0,0,1.0
59,56,'1',0.01262,0.03339,0.00061,65.5,65.5,65.5,0.0,0.0,0.0,0.0,1,1,3.05,1,1.0,0,1.0,0,1.0,0,1.0
60,62,'1',0.03515,0.10136,0.00063,54.1,54.1,54.1,0.0,0.0,0.0,0.0,1,1,5.27,1,1.0,0,1.0,0,1.0,0,1.0
62,1603,'1',0.03241,0.07489,0.0092,49.6,49.6,49.6,0.0,0.0,0.0,0.0,1,1,13.98,1,1.0,0,1.0,0,1.0,0,1.0
63,67,'1',0.02682,0.06666,0.00147,62.2,62.2,62.2,0.0,0.0,0.0,0.0,1,1,5.95,1,1.0,0,1.0,0,1.0,0,1.0
64,91,'1',0.0235,0.05751,0.00114,55.9,55.9,55.9,0.0,0.0,0.0,0.0,1,1,5.19,1,1.0,0,1.0,0,1.0,0,1.0
65,66,'1',0.03205,0.08264,0.00173,60.6,60.6,60.6,0.0,0.0,0.0,0.0,1,1,6.92,1,1.0,0,1.0,0,1.0,0,1.0
65,109,'1',0.0582,0.10902,0.00112,57.9,57.9,57.9,0.0,0.0,0.0,0.0,1,1,6.98,1,1.0,0,1.0,0,1.0,0,1.0
67,71,'1',0.03739,0.09462,0.00638,78.4,78.4,78.4,0.0,0.0,0.0,0.0,1,1,13.19,1,1.0,0,1.0,0,1.0,0,1.0
68,69,'1',0.03605,0.07795,0.00168,55.9,55.9,55.9,0.0,0.0,0.0,0.0,1,1,7.15,1,1.0,0,1.0,0,1.0,0,1.0
68,269,'1',0.01673,0.04281,0.00189,52.3,52.3,52.3,0.0,0.0,0.0,0.0,1,1,5.86,1,1.0,0,1.0,0,1.0,0,1.0
69,22,'1',0.02552,0.06993,0.00167,52.1,52.1,52.1,0.0,0.0,0.0,0.0,1,1,7.44,1,1.0,0,1.0,0,1.0,0,1.0
70,72,'1',0.00024,0.00118,0.0,165.6,165.6,165.6,0.0,0.0,0.0,0.0,1,1,0.0,1,1.0,0,1.0,0,1.0,0,1.0
70,1908,'1',0.00723,0.03362,0.01815,187.2,187.2,187.2,0.0,0.0,0.0,0.0,1,1,13.36,1,1.0,0,1.0,0,1.0,0,1.0
71,107,'1',0.05494,0.10268,0.0026,57.7,57.7,57.7,0.0,0.0,0.0,0.0,1,1,9.75,1,1.0,0,1.0,0,1.0,0,1.0
73,75,'1',0.00028,0.00107,0.0,165.6,165.6,165.6,0.0,0.0,0.0,0.0,1,1,0.0,1,1.0,0,1.0,0,1.0,0,1.0
75,84,'1',0.00521,0.02882,0.00405,208.8,208.8,208.8,0.0,0.0,0.0,0.0,1,1,7.44,1,1.0,0,1.0,0,1.0,0,1.0
76,2020,'1',0.0024,0.02943,0.38186,1035.0,1035.0,1035.0,0.0,0.0,0.0,0.0,1,1,59.77,1,1.0,0,1.0,0,1.0,0,1.0
77,84,'1',0.00479,0.03165,0.0031,210.6,210.6,210.6,0.0,0.0,0.0,0.0,1,1,5.69,1,1.0,0,1.0,0,1.0,0,1.0
77,85,'1',0.00594,0.03048,0.00769,254.8,254.8,254.8,0.0,0.0,0.0,0.0,1,1,8.92,1,1.0,0,1.0,0,1.0,0,1.0
78,94,'1',0.00615,0.01244,0.00026,69.3,69.3,69.3,0.0,0.0,0.0,0.0,1,1,0.0,1,1.0,0,1.0,0,1.0,0,1.0
78,95,'1',0.03284,0.07257,0.00169,71.9,71.9,71.9,0.0,0.0,0.0,0.0,1,1,6.89,1,1.0,0,1.0,0,1.0,0,1.0
78,97,'1',0.02774,0.05582,0.00315,62.5,62.5,62.5,0.0,0.0,0.0,0.0,1,1,8.01,1,1.0,0,1.0,0,1.0,0,1.0
79,78,'1',0.02001,0.05675,0.00131,53.9,53.9,53.9,0.0,0.0,0.0,0.0,1,1,5.41,1,1.0,0,1.0,0,1.0,0,1.0
79,86,'1',0.01566,0.03864,0.00125,67.1,67.1,67.1,0.0,0.0,0.0,0.0,1,1,4.67,1,1.0,0,1.0,0,1.0,0,1.0
80,376,'1',0.03789,0.09223,0.00152,66.3,66.3,66.3,0.0,0.0,0.0,0.0,1,1,8.1,1,1.0,0,1.0,0,1.0,0,1.0
81,80,'1',0.02967,0.07681,0.00046,64.2,64.2,64.2,0.0,0.0,0.0,0.0,1,1,4.42,1,1.0,0,1.0,0,1.0,0,1.0
81,93,'1',0.01988,0.04902,0.00211,58.3,58.3,58.3,0.0,0.0,0.0,0.0,1,1,7.02,1,1.0,0,1.0,0,1.0,0,1.0
82,84,'1',0.00029,0.00102,0.0,414.0,414.0,414.0,0.0,0.0,0.0,0.0,1,1,0.0,1,1.0,0,1.0,0,1.0,0,1.0
83,81,'1',0.00381,0.01076,0.0003,57.4,57.4,57.4,0.0,0.0,0.0,0.0,1,1,1.07,1,1.0,0,1.0,0,1.0,0,1.0
84,96,'1',0.00631,0.03691,0.01119,194.9,194.9,194.9,0.0,0.0,0.0,0.0,1,1,12.93,1,1.0,0,1.0,0,1.0,0,1.0
85,87,'1',0.00024,0.00113,0.0,165.6,165.6,165.6,0.0,0.0,0.0,0.0,1,1,0.0,1,1.0,0,1.0,0,1.0,0,1.0
85,114,'1',0.00742,0.04285,0.08388,261.2,261.2,261.2,0.0,0.0,0.0,0.0,1,1,33.39,1,1.0,0,1.0,0,1.0,0,1.0
85,1759,'1',0.00469,0.02961,0.03061,325.0,325.0,325.0,0.0,0.0,0.0,0.0,1,1,16.4,1,1.0,0,1.0,0,1.0,0,1.0
86,80,'1',0.01903,0.045,0.00115,62.2,62.2,62.2,0.0,0.0,0.0,0.0,1,1,5.09,1,1.0,0,1.0,0,1.0,0,1.0
88,1759,'1',0.01016,0.06325,0.01348,187.2,187.2,187.2,0.0,0.0,0.0,0.0,1,1,16.14,1,1.0,0,1.0,0,1.0,0,1.0
89,376,'1',0.0307,0.08586,0.00065,57.5,57.5,57.5,0.0,0.0,0.0,0.0,1,1,5.36,1,1.0,0,1.0,0,1.0,0,1.0
90,92,'1',0.00023,0.00103,0.0,414.0,414.0,414.0,0.0,0.0,0.0,0.0,1,1,0.0,1,1.0,0,1.0,0,1.0,0,1.0
92,77,'1',0.00549,0.03185,0.00652,216.6,216.6,216.6,0.0,0.0,0.0,0.0,1,1,8.99,1,1.0,0,1.0,0,1.0,0,1.0
93,78,'1',0.00615,0.01244,0.00026,69.3,69.3,69.3,0.0,0.0,0.0,0.0,1,1,1.02,1,1.0,0,1.0,0,1.0,0,1.0
93,94,'1',0.0,0.001,0.0,82.8,82.8,82.8,0.0,0.0,0.0,0.0,1,1,0.0,1,1.0,0,1.0,0,1.0,0,1.0
94,81,'1',0.01988,0.04902,0.00211,58.3,58.3,58.3,0.0,0.0,0.0,0.0,1,1,0.0,1,1.0,0,1.0,0,1.0,0,1.0
95,74,'1',0.01816,0.04437,0.00069,58.9,58.9,58.9,0.0,0.0,0.0,0.0,1,1,3.65,1,1.0,0,1.0,0,1.0,0,1.0
96,77,'1',0.00225,0.01514,0.0116,210.8,210.8,210.8,0.0,0.0,0.0,0.0,1,1,9.14,1,1.0,0,1.0,0,1.0,0,1.0
97,71,'1',0.03271,0.08645,0.00135,63.9,63.9,63.9,0.0,0.0,0.0,0.0,1,1,7.04,1,1.0,0,1.0,0,1.0,0,1.0
98,99,'1',0.00897,0.01897,0.00274,60.1,60.1,60.1,0.0,0.0,0.0,0.0,1,1,5.06,1,1.0,0,1.0,0,1.0,0,1.0
98,323,'1',0.01478,0.05109,0.01283,61.7,61.7,61.7,0.0,0.0,0.0,0.0,1,1,13.57,1,1.0,0,1.0,0,1.0,0,1.0
99,258,'1',0.01936,0.05265,0.00327,57.8,57.8,57.8,0.0,0.0,0.0,0.0,1,1,8.28,1,1.0,0,1.0,0,1.0,0,1.0
...